Test_Systems/EPRI_DPV_J1-G/j1/Branches.dss
New "Line.oh_5964927408" bus1=feederhead.1.2.3 bus2=5964927408.1.2.3 length=22.86 units=m linecode=oh-3x_477aac_4/0aaacn Seasons=1 Ratings=[400,] normamps=732 emergamps=871 phases=3 enabled=true
New "Line.oh_5965127404" bus1=5964927408.1.2.3 bus2=5965127404.1.2.3 length=15.24 units=m linecode=oh-3x_477aac_4/0aaacn Seasons=1 Ratings=[400,] normamps=732 emergamps=871 phases=3 enabled=true
New "Line.oh_b5220" bus1=5965127404.1.2.3 bus2=b5220.1.2.3 length=12.8016 units=m linecode=oh-3x_477aac_477aacn Seasons=1 Ratings=[400,] normamps=732 emergamps=871 phases=3 enabled=true
New "Line.oh_b5218" bus1=b5220.1.2.3 bus2=b5218.1.2.3 length=76.8096 units=m linecode=oh-3x_477aac_477aacn Seasons=1 Ratings=[400,] normamps=732 emergamps=871 phases=3 enabled=true
New "Line.b5218-1-b_cust1" phases=1 bus1=x_b5218-b.2 bus2=x_b5218_cust1-b.2 length=0.1 linecode=1/0a Seasons=1 Ratings=[400,] normamps=202 emergamps=252.5 units=kft
New "Line.oh_b5213" bus1=b5218.1.2.3 bus2=b5213.1.2.3 length=205.74 units=m linecode=oh-3v_477aac_477aacn Seasons=1 Ratings=[400,] normamps=732 emergamps=871 phases=3 enabled=true
New "Line.b5213-1-c_cust1" phases=1 bus1=x_b5213-c.3 bus2=x_b5213_cust1-c.3 length=0.1 linecode=1/0a Seasons=1 Ratings=[400,] normamps=202 emergamps=252.5 units=kft
New "Line.oh_b18526" bus1=b5213.3 bus2=b18526.3 length=35.052 units=m linecode=oh-1x_4cu_4cun Seasons=1 Ratings=[400,] normamps=142 emergamps=142 phases=1 enabled=true
New "Line.oh_b38699" bus1=b18526.3 bus2=b38699.3 length=51.2064 units=m linecode=oh-1x_4cu_4cun Seasons=1 Ratings=[400,] normamps=142 emergamps=142 phases=1 enabled=true
New "Line.oh_b13220" bus1=b38699.3 bus2=b13220.3 length=52.1208 units=m linecode=oh-1x_4cu_4cun Seasons=1 Ratings=[400,] normamps=142 emergamps=142 phases=1 enabled=true
New "Line.b13220-1-c_cust1" phases=1 bus1=x_b13220-c.3 bus2=x_b13220_cust1-c.3 length=0.1 linecode=1/0a Seasons=1 Ratings=[400,] normamps=202 emergamps=252.5 units=kft
New "Line.oh_b16630" bus1=b13220.3 bus2=b16630.3 length=169.164 units=m linecode=oh-1x_4cu_4cun Seasons=1 Ratings=[400,] normamps=142 emergamps=142 phases=1 enabled=true
New "Line.oh_b59433" bus1=b16630.3 bus2=b59433.3 length=61.8744 units=m linecode=oh-1x_4cu_4cun Seasons=1 Ratings=[400,] normamps=142 emergamps=142 phases=1 enabled=true
New "Line.b59433-1-c_cust1" phases=1 bus1=x_b59433-c.3 bus2=x_b59433_cust1-c.3 length=0.1 linecode=1/0a Seasons=1 Ratings=[400,] normamps=202 emergamps=252.5 units=kft
New "Line.b59433-1-c_cust2" phases=1 bus1=x_b59433-c.3 bus2=x_b59433_cust2-c.3 length=0.1 linecode=1/0a Seasons=1 Ratings=[400,] normamps=202 emergamps=252.5 units=kft
New "Line.oh_b13752" bus1=b16630.3 bus2=b13752.3 length=93.8784 units=m linecode=oh-1x_4cu_4cun Seasons=1 Ratings=[400,] normamps=142 emergamps=142 phases=1 enabled=true
New "Line.b13752-1-c_cust1" phases=1 bus1=x_b13752-c.3 bus2=x_b13752_cust1-c.3 length=0.1 linecode=1/0a Seasons=1 Ratings=[400,] normamps=202 emergamps=252.5 units=kft
New "Line.oh_b29921" bus1=b13752.3 bus2=b29921.3 length=134.7216 units=m linecode=oh-1x_4cu_4cun Seasons=1 Ratings=[400,] normamps=142 emergamps=142 phases=1 enabled=true
New "Line.b29921-1-c_cust1" phases=1 bus1=x_b29921-c.3 bus2=x_b29921_cust1-c.3 length=0.1 linecode=1/0a Seasons=1 Ratings=[400,] normamps=202 emergamps=252.5 units=kft
New "Line.oh_b5209" bus1=b5213.1.2.3 bus2=b5209.1.2.3 length=172.212 units=m linecode=oh-3v_477aac_477aacn Seasons=1 Ratings=[400,] normamps=732 emergamps=871 phases=3 enabled=true
New "Line.b5209-1-c_cust1" phases=1 bus1=x_b5209-c.3 bus2=x_b5209_cust1-c.3 length=0.1 linecode=1/0a Seasons=1 Ratings=[400,] normamps=202 emergamps=252.5 units=kft
New "Line.b5209-1-c_cust2" phases=1 bus1=x_b5209-c.3 bus2=x_b5209_cust2-c.3 length=0.1 linecode=1/0a Seasons=1 Ratings=[400,] normamps=202 emergamps=252.5 units=kft
New "Line.b5209-1-c_cust3" phases=1 bus1=x_b5209-c.3 bus2=x_b5209_cust3-c.3 length=0.1 linecode=1/0a Seasons=1 Ratings=[400,] normamps=202 emergamps=252.5 units=kft
New "Line.b5209-1-c_cust4" phases=1 bus1=x_b5209-c.3 bus2=x_b5209_cust4-c.3 length=0.1 linecode=1/0a Seasons=1 Ratings=[400,] normamps=202 emergamps=252.5 units=kft
New "Line.b5209-1-c_cust5" phases=1 bus1=x_b5209-c.3 bus2=x_b5209_cust5-c.3 length=0.1 linecode=1/0a Seasons=1 Ratings=[400,] normamps=202 emergamps=252.5 units=kft
New "Line.oh_b5207" bus1=b5209.1.2.3 bus2=b5207.1.2.3 length=85.9536 units=m linecode=oh-3v_477aac_477aacn Seasons=1 Ratings=[400,] normamps=732 emergamps=871 phases=3 enabled=true
New "Line.b5207-1-c_cust1" phases=1 bus1=x_b5207-c.3 bus2=x_b5207_cust1-c.3 length=0.1 linecode=1/0a Seasons=1 Ratings=[400,] normamps=202 emergamps=252.5 units=kft
New "Line.b5207-1-c_cust2" phases=1 bus1=x_b5207-c.3 bus2=x_b5207_cust2-c.3 length=0.1 linecode=1/0a Seasons=1 Ratings=[400,] normamps=202 emergamps=252.5 units=kft
New "Line.b5207-1-c_cust3" phases=1 bus1=x_b5207-c.3 bus2=x_b5207_cust3-c.3 length=0.1 linecode=1/0a Seasons=1 Ratings=[400,] normamps=202 emergamps=252.5 units=kft
New "Line.oh_b5206" bus1=b5207.1.2.3 bus2=b5206.1.2.3 length=41.148 units=m linecode=oh-3v_477aac_477aacn Seasons=1 Ratings=[400,] normamps=732 emergamps=871 phases=3 enabled=true
New "Line.b5206-1-c_cust1" phases=1 bus1=x_b5206-c.3 bus2=x_b5206_cust1-c.3 length=0.1 linecode=1/0a Seasons=1 Ratings=[400,] normamps=202 emergamps=252.5 units=kft
New "Line.b5206-1-c_cust2" phases=1 bus1=x_b5206-c.3 bus2=x_b5206_cust2-c.3 length=0.1 linecode=1/0a Seasons=1 Ratings=[400,] normamps=202 emergamps=252.5 units=kft
New "Line.oh_b5201" bus1=b5206.1.2.3 bus2=b5201.1.2.3 length=207.264 units=m linecode=oh-3v_477aac_477aacn Seasons=1 Ratings=[400,] normamps=732 emergamps=871 phases=3 enabled=true
New "Line.oh_b13630" bus1=b5201.1.2.3 bus2=b13630.1.2.3 length=42.672 units=m linecode=oh-3v_477aac_4/0aaacn Seasons=1 Ratings=[400,] normamps=732 emergamps=871 phases=3 enabled=true
New "Line.oh_b5199" bus1=b13630.1.2.3 bus2=b5199.1.2.3 length=38.1 units=m linecode=oh-3v_477aac_477aacn Seasons=1 Ratings=[400,] normamps=732 emergamps=871 phases=3 enabled=true
New "Line.oh_b13629" bus1=b5199.1.2.3 bus2=b13629.1.2.3 length=44.196 units=m linecode=oh-3v_477aac_477aacn Seasons=1 Ratings=[400,] normamps=732 emergamps=871 phases=3 enabled=true
New "Line.oh_b13624" bus1=b13629.1.2.3 bus2=b13624.1.2.3 length=30.7848 units=m linecode=oh-3v_477aac_4/0aaacn Seasons=1 Ratings=[400,] normamps=732 emergamps=871 phases=3 enabled=true
New "Line.oh_b13623" bus1=b13624.1.2.3 bus2=b13623.1.2.3 length=59.436 units=m linecode=oh-3v_477aac_4/0aaacn Seasons=1 Ratings=[400,] normamps=732 emergamps=871 phases=3 enabled=true
New "Line.oh_b5194" bus1=b13623.1.2.3 bus2=b5194.1.2.3 length=27.1272 units=m linecode=oh-3x_477aac_4/0aaacn Seasons=1 Ratings=[400,] normamps=732 emergamps=871 phases=3 enabled=true
New "Line.b5194-1-a_cust1" phases=1 bus1=x_b5194-a.1 bus2=x_b5194_cust1-a.1 length=0.1 linecode=1/0a Seasons=1 Ratings=[400,] normamps=202 emergamps=252.5 units=kft
New "Line.oh_b5193" bus1=b5194.1.2.3 bus2=b5193.1.2.3 length=44.196 units=m linecode=oh-3x_477aac_4/0aaacn Seasons=1 Ratings=[400,] normamps=732 emergamps=871 phases=3 enabled=true
New "Line.b5193-1-b_cust1" phases=1 bus1=x_b5193-b.2 bus2=x_b5193_cust1-b.2 length=0.1 linecode=1/0a Seasons=1 Ratings=[400,] normamps=202 emergamps=252.5 units=kft
New "Line.b5193-1-b_cust2" phases=1 bus1=x_b5193-b.2 bus2=x_b5193_cust2-b.2 length=0.1 linecode=1/0a Seasons=1 Ratings=[400,] normamps=202 emergamps=252.5 units=kft
New "Line.oh_b5188" bus1=b5193.1.2.3 bus2=b5188.1.2.3 length=212.1408 units=m linecode=oh-3x_477aac_4/0aaacn Seasons=1 Ratings=[400,] normamps=732 emergamps=871 phases=3 enabled=true
New "Line.b5188-1-a_cust1" phases=1 bus1=x_b5188-a.1 bus2=x_b5188_cust1-a.1 length=0.1 linecode=1/0a Seasons=1 Ratings=[400,] normamps=202 emergamps=252.5 units=kft
New "Line.b5188-1-a_cust2" phases=1 bus1=x_b5188-a.1 bus2=x_b5188_cust2-a.1 length=0.1 linecode=1/0a Seasons=1 Ratings=[400,] normamps=202 emergamps=252.5 units=kft
New "Line.oh_b5186" bus1=b5188.1.2.3 bus2=b5186.1.2.3 length=84.1248 units=m linecode=oh-3x_477aac_4/0aaacn Seasons=1 Ratings=[400,] normamps=732 emergamps=871 phases=3 enabled=true
New "Line.b5186-1-b_cust1" phases=1 bus1=x_b5186-b.2 bus2=x_b5186_cust1-b.2 length=0.1 linecode=1/0a Seasons=1 Ratings=[400,] normamps=202 emergamps=252.5 units=kft
New "Line.oh_b5185" bus1=b5186.1.2.3 bus2=b5185.1.2.3 length=42.9768 units=m linecode=oh-3x_477aac_4/0aaacn Seasons=1 Ratings=[400,] normamps=732 emergamps=871 phases=3 enabled=true
New "Line.b5185-1-c_cust1" phases=1 bus1=x_b5185-c.3 bus2=x_b5185_cust1-c.3 length=0.1 linecode=1/0a Seasons=1 Ratings=[400,] normamps=202 emergamps=252.5 units=kft
New "Line.oh_b23283" bus1=b5185.1.2.3 bus2=b23283.1.2.3 length=106.0704 units=m linecode=oh-3x_477aac_4/0aaacn Seasons=1 Ratings=[400,] normamps=732 emergamps=871 phases=3 enabled=true
New "Line.oh_b11364" bus1=b23283.1.2.3 bus2=b11364.1.2.3 length=10.9728 units=m linecode=oh-3x_477aac_4/0aaacn Seasons=1 Ratings=[400,] normamps=732 emergamps=871 phases=3 enabled=true
New "Line.oh_b11365" bus1=b11364.1.2.3 bus2=b11365.1.2.3 length=81.6864 units=m linecode=oh-3x_477aac_4/0aaacn Seasons=1 Ratings=[400,] normamps=732 emergamps=871 phases=3 enabled=true
New "Line.b11365-1-c_cust1" phases=1 bus1=x_b11365-c.3 bus2=x_b11365_cust1-c.3 length=0.1 linecode=1/0a Seasons=1 Ratings=[400,] normamps=202 emergamps=252.5 units=kft
New "Line.b11365-1-b_cust1" phases=1 bus1=x_b11365-b.2 bus2=x_b11365_cust1-b.2 length=0.1 linecode=1/0a Seasons=1 Ratings=[400,] normamps=202 emergamps=252.5 units=kft
New "Line.oh_b11367" bus1=b11365.1.2.3 bus2=b11367.1.2.3 length=149.352 units=m linecode=oh-3x_477aac_4/0aaacn Seasons=1 Ratings=[400,] normamps=732 emergamps=871 phases=3 enabled=true
New "Line.b11367-1-b_cust1" phases=1 bus1=x_b11367-b.2 bus2=x_b11367_cust1-b.2 length=0.1 linecode=1/0a Seasons=1 Ratings=[400,] normamps=202 emergamps=252.5 units=kft
New "Line.oh_b11368" bus1=b11367.1.2.3 bus2=b11368.1.2.3 length=49.3776 units=m linecode=oh-3x_477aac_4/0aaacn Seasons=1 Ratings=[400,] normamps=732 emergamps=871 phases=3 enabled=true
New "Line.b11368-1-b_cust1" phases=1 bus1=x_b11368-b.2 bus2=x_b11368_cust1-b.2 length=0.1 linecode=1/0a Seasons=1 Ratings=[400,] normamps=202 emergamps=252.5 units=kft
New "Line.b11368-1-b_cust2" phases=1 bus1=x_b11368-b.2 bus2=x_b11368_cust2-b.2 length=0.1 linecode=1/0a Seasons=1 Ratings=[400,] normamps=202 emergamps=252.5 units=kft
New "Line.oh_b11418" bus1=b11368.1.2.3 bus2=b11418.1.2.3 length=43.5864 units=m linecode=oh-3x_477aac_4/0aaacn Seasons=1 Ratings=[400,] normamps=732 emergamps=871 phases=3 enabled=true
New "Line.b11418-1-b_cust1" phases=1 bus1=x_b11418-b.2 bus2=x_b11418_cust1-b.2 length=0.1 linecode=1/0a Seasons=1 Ratings=[400,] normamps=202 emergamps=252.5 units=kft
New "Line.b11418-1-b_cust2" phases=1 bus1=x_b11418-b.2 bus2=x_b11418_cust2-b.2 length=0.1 linecode=1/0a Seasons=1 Ratings=[400,] normamps=202 emergamps=252.5 units=kft
New "Line.b11418-1-b_cust3" phases=1 bus1=x_b11418-b.2 bus2=x_b11418_cust3-b.2 length=0.1 linecode=1/0a Seasons=1 Ratings=[400,] normamps=202 emergamps=252.5 units=kft
New "Line.b11418-1-b_cust4" phases=1 bus1=x_b11418-b.2 bus2=x_b11418_cust4-b.2 length=0.1 linecode=1/0a Seasons=1 Ratings=[400,] normamps=202 emergamps=252.5 units=kft
New "Line.b11418-1-b_cust5" phases=1 bus1=x_b11418-b.2 bus2=x_b11418_cust5-b.2 length=0.1 linecode=1/0a Seasons=1 Ratings=[400,] normamps=202 emergamps=252.5 units=kft
New "Line.oh_b2526" bus1=b11418.1.2.3 bus2=b2526.1.2.3 length=125.2728 units=m linecode=oh-3x_477aac_4/0aaacn Seasons=1 Ratings=[400,] normamps=732 emergamps=871 phases=3 enabled=true
New "Line.b2526-1-b_cust1" phases=1 bus1=x_b2526-b.2 bus2=x_b2526_cust1-b.2 length=0.1 linecode=1/0a Seasons=1 Ratings=[400,] normamps=202 emergamps=252.5 units=kft
New "Line.b2526-1-b_cust2" phases=1 bus1=x_b2526-b.2 bus2=x_b2526_cust2-b.2 length=0.1 linecode=1/0a Seasons=1 Ratings=[400,] normamps=202 emergamps=252.5 units=kft
New "Line.b2526-1-b_cust3" phases=1 bus1=x_b2526-b.2 bus2=x_b2526_cust3-b.2 length=0.1 linecode=1/0a Seasons=1 Ratings=[400,] normamps=202 emergamps=252.5 units=kft
New "Line.oh_b2532" bus1=b2526.1.2.3 bus2=b2532.1.2.3 length=93.2688 units=m linecode=oh-3x_477aac_4/0aaacn Seasons=1 Ratings=[400,] normamps=732 emergamps=871 phases=3 enabled=true
New "Line.b2532-1-a_cust1" phases=1 bus1=x_b2532-a.1 bus2=x_b2532_cust1-a.1 length=0.1 linecode=1/0a Seasons=1 Ratings=[400,] normamps=202 emergamps=252.5 units=kft
New "Line.oh_b2547" bus1=b2532.1.2.3 bus2=b2547.1.2.3 length=83.5152 units=m linecode=oh-3x_477aac_4/0aaacn Seasons=1 Ratings=[400,] normamps=732 emergamps=871 phases=3 enabled=true
New "Line.oh_b2630" bus1=b2547.1.2.3 bus2=b2630.1.2.3 length=247.4976 units=m linecode=oh-3x_477aac_4/0aaacn Seasons=1 Ratings=[400,] normamps=732 emergamps=871 phases=3 enabled=true
New "Line.oh_b29176" bus1=b2630.1.3 bus2=b29176.1.3 length=21.9456 units=m linecode=oh-2x_4cu_4cun Seasons=1 Ratings=[400,] normamps=142 emergamps=142 phases=2 enabled=true
New "Line.oh_b39509" bus1=b29176.1.3 bus2=b39509.1.3 length=52.1208 units=m linecode=oh-2x_4cu_4cun Seasons=1 Ratings=[400,] normamps=142 emergamps=142 phases=2 enabled=true
New "Line.oh_b29178" bus1=b39509.1.3 bus2=b29178.1.3 length=163.3728 units=m linecode=oh-2x_4cu_4cun Seasons=1 Ratings=[400,] normamps=142 emergamps=142 phases=2 enabled=true
New "Line.b29178-1-a_cust1" phases=1 bus1=x_b29178-a.1 bus2=x_b29178_cust1-a.1 length=0.1 linecode=1/0a Seasons=1 Ratings=[400,] normamps=202 emergamps=252.5 units=kft
New "Line.oh_b29179" bus1=b29178.1.3 bus2=b29179.1.3 length=99.06 units=m linecode=oh-2x_4cu_4cun Seasons=1 Ratings=[400,] normamps=142 emergamps=142 phases=2 enabled=true
New "Line.b29179-1-c_cust1" phases=1 bus1=x_b29179-c.3 bus2=x_b29179_cust1-c.3 length=0.1 linecode=1/0a Seasons=1 Ratings=[400,] normamps=202 emergamps=252.5 units=kft
New "Line.b29179-1-a_cust1" phases=1 bus1=x_b29179-a.1 bus2=x_b29179_cust1-a.1 length=0.1 linecode=1/0a Seasons=1 Ratings=[400,] normamps=202 emergamps=252.5 units=kft
New "Line.oh_b61913" bus1=b29179.1.3 bus2=b61913.1.3 length=47.8536 units=m linecode=oh-2x_4cu_4cun Seasons=1 Ratings=[400,] normamps=142 emergamps=142 phases=2 enabled=true
New "Line.oh_b29180" bus1=b61913.1 bus2=b29180.1 length=47.5488 units=m linecode=oh-1x_4cu_4cun Seasons=1 Ratings=[400,] normamps=142 emergamps=142 phases=1 enabled=true
New "Line.oh_b29181" bus1=b29180.1 bus2=b29181.1 length=110.9472 units=m linecode=oh-1x_4cu_4cun Seasons=1 Ratings=[400,] normamps=142 emergamps=142 phases=1 enabled=true
New "Line.b29181-1-a_cust1" phases=1 bus1=x_b29181-a.1 bus2=x_b29181_cust1-a.1 length=0.1 linecode=1/0a Seasons=1 Ratings=[400,] normamps=202 emergamps=252.5 units=kft
New "Line.oh_b42005" bus1=b29181.1 bus2=b42005.1 length=46.0248 units=m linecode=oh-1x_4cu_4cun Seasons=1 Ratings=[400,] normamps=142 emergamps=142 phases=1 enabled=true
New "Line.b42005-1-a_cust1" phases=1 bus1=x_b42005-a.1 bus2=x_b42005_cust1-a.1 length=0.1 linecode=1/0a Seasons=1 Ratings=[400,] normamps=202 emergamps=252.5 units=kft
New "Line.oh_b16655" bus1=b42005.1 bus2=b16655.1 length=220.3704 units=m linecode=oh-1x_4cu_4cun Seasons=1 Ratings=[400,] normamps=142 emergamps=142 phases=1 enabled=true
New "Line.oh_b49346" bus1=b16655.1 bus2=b49346.1 length=163.068 units=m linecode=oh-1x_4cu_4cun Seasons=1 Ratings=[400,] normamps=142 emergamps=142 phases=1 enabled=true
New "Line.oh_5912527743" bus1=b49346.1 bus2=5912527743.1 length=158.496 units=m linecode=oh-1x_2aaac_2aaacn Seasons=1 Ratings=[400,] normamps=155 emergamps=183 phases=1 enabled=true
New "Line.5912527743-1-a_cust1" phases=1 bus1=x_5912527743-a.1 bus2=x_5912527743_cust1-a.1 length=0.1 linecode=1/0a Seasons=1 Ratings=[400,] normamps=202 emergamps=252.5 units=kft
New "Line.oh_b16658" bus1=b16655.1 bus2=b16658.1 length=184.7088 units=m linecode=oh-1x_4cu_4cun Seasons=1 Ratings=[400,] normamps=142 emergamps=142 phases=1 enabled=true
New "Line.b16658-1-a_cust1" phases=1 bus1=x_b16658-a.1 bus2=x_b16658_cust1-a.1 length=0.1 linecode=1/0a Seasons=1 Ratings=[400,] normamps=202 emergamps=252.5 units=kft
New "Line.oh_b22561" bus1=b2630.1 bus2=b22561.1 length=19.812 units=m linecode=oh-1x_477aac_4/0aaacn Seasons=1 Ratings=[400,] normamps=732 emergamps=871 phases=1 enabled=true
New "Line.oh_b22569" bus1=b22561.1 bus2=b22569.1 length=149.0472 units=m linecode=oh-1x_477aac_4/0aaacn Seasons=1 Ratings=[400,] normamps=732 emergamps=871 phases=1 enabled=true
New "Line.b22569-1-a_cust1" phases=1 bus1=x_b22569-a.1 bus2=x_b22569_cust1-a.1 length=0.1 linecode=1/0a Seasons=1 Ratings=[400,] normamps=202 emergamps=252.5 units=kft
New "Line.oh_b22564" bus1=b22569.1 bus2=b22564.1 length=69.7992 units=m linecode=oh-1x_477aac_4/0aaacn Seasons=1 Ratings=[400,] normamps=732 emergamps=871 phases=1 enabled=true
New "Line.oh_b22565" bus1=b22564.1 bus2=b22565.1 length=67.9704 units=m linecode=oh-1x_4cu_4cun Seasons=1 Ratings=[400,] normamps=142 emergamps=142 phases=1 enabled=true
New "Line.b22565-1-a_cust1" phases=1 bus1=x_b22565-a.1 bus2=x_b22565_cust1-a.1 length=0.1 linecode=1/0a Seasons=1 Ratings=[400,] normamps=202 emergamps=252.5 units=kft
New "Line.b22565-1-a_cust2" phases=1 bus1=x_b22565-a.1 bus2=x_b22565_cust2-a.1 length=0.1 linecode=1/0a Seasons=1 Ratings=[400,] normamps=202 emergamps=252.5 units=kft
New "Line.oh_b22566" bus1=b22565.1 bus2=b22566.1 length=79.8576 units=m linecode=oh-1x_4cu_4cun Seasons=1 Ratings=[400,] normamps=142 emergamps=142 phases=1 enabled=true
New "Line.oh_b2632" bus1=b2630.3 bus2=b2632.3 length=81.6864 units=m linecode=oh-1x_477aac_4/0aaacn Seasons=1 Ratings=[400,] normamps=732 emergamps=871 phases=1 enabled=true
New "Line.oh_b2648" bus1=b2632.3 bus2=b2648.3 length=334.0608 units=m linecode=oh-1x_477aac_4/0aaacn Seasons=1 Ratings=[400,] normamps=732 emergamps=871 phases=1 enabled=true
New "Line.oh_g42775" bus1=b2648.3 bus2=g42775.3 length=22.86 units=m linecode=oh-1x_477aac_4/0aaacn Seasons=1 Ratings=[400,] normamps=732 emergamps=871 phases=1 enabled=true
New "Line.oh_g42777" bus1=g42775.3 bus2=g42777.3 length=70.7136 units=m linecode=oh-1x_477aac_4/0aaacn Seasons=1 Ratings=[400,] normamps=732 emergamps=871 phases=1 enabled=true
New "Line.g42777-1-c_cust1" phases=1 bus1=x_g42777-c.3 bus2=x_g42777_cust1-c.3 length=0.1 linecode=1/0a Seasons=1 Ratings=[400,] normamps=202 emergamps=252.5 units=kft
New "Line.oh_b31756" bus1=b2648.3 bus2=b31756.3 length=188.0616 units=m linecode=oh-1x_477aac_4/0aaacn Seasons=1 Ratings=[400,] normamps=732 emergamps=871 phases=1 enabled=true
New "Line.oh_b22157" bus1=b31756.3 bus2=b22157.3 length=48.1584 units=m linecode=oh-1x_4cu_4cun Seasons=1 Ratings=[400,] normamps=142 emergamps=142 phases=1 enabled=true
New "Line.b22157-1-c_cust1" phases=1 bus1=x_b22157-c.3 bus2=x_b22157_cust1-c.3 length=0.1 linecode=1/0a Seasons=1 Ratings=[400,] normamps=202 emergamps=252.5 units=kft
New "Line.b22157-1-c_cust2" phases=1 bus1=x_b22157-c.3 bus2=x_b22157_cust2-c.3 length=0.1 linecode=1/0a Seasons=1 Ratings=[400,] normamps=202 emergamps=252.5 units=kft
New "Line.b22157-1-c_cust3" phases=1 bus1=x_b22157-c.3 bus2=x_b22157_cust3-c.3 length=0.1 linecode=1/0a Seasons=1 Ratings=[400,] normamps=202 emergamps=252.5 units=kft
New "Line.oh_b36180" bus1=b22157.3 bus2=b36180.3 length=381.6096 units=m linecode=oh-1x_4cu_4cun Seasons=1 Ratings=[400,] normamps=142 emergamps=142 phases=1 enabled=true
New "Line.b36180-1-c_cust1" phases=1 bus1=x_b36180-c.3 bus2=x_b36180_cust1-c.3 length=0.1 linecode=1/0a Seasons=1 Ratings=[400,] normamps=202 emergamps=252.5 units=kft
New "Line.oh_b36181" bus1=b36180.3 bus2=b36181.3 length=66.1416 units=m linecode=oh-1x_4cu_4cun Seasons=1 Ratings=[400,] normamps=142 emergamps=142 phases=1 enabled=true
New "Line.b36181-1-c_cust1" phases=1 bus1=x_b36181-c.3 bus2=x_b36181_cust1-c.3 length=0.1 linecode=1/0a Seasons=1 Ratings=[400,] normamps=202 emergamps=252.5 units=kft
New "Line.oh_b36183" bus1=b36181.3 bus2=b36183.3 length=157.8864 units=m linecode=oh-1x_4cu_4cun Seasons=1 Ratings=[400,] normamps=142 emergamps=142 phases=1 enabled=true
New "Line.b36183-1-c_cust1" phases=1 bus1=x_b36183-c.3 bus2=x_b36183_cust1-c.3 length=0.1 linecode=1/0a Seasons=1 Ratings=[400,] normamps=202 emergamps=252.5 units=kft
New "Line.oh_b60867" bus1=b36183.3 bus2=b60867.3 length=183.4896 units=m linecode=oh-1x_4cu_4cun Seasons=1 Ratings=[400,] normamps=142 emergamps=142 phases=1 enabled=true
New "Line.b60867-1-c_cust1" phases=1 bus1=x_b60867-c.3 bus2=x_b60867_cust1-c.3 length=0.1 linecode=1/0a Seasons=1 Ratings=[400,] normamps=202 emergamps=252.5 units=kft
New "Line.oh_b60868" bus1=b60867.3 bus2=b60868.3 length=121.0056 units=m linecode=oh-1x_4cu_4cun Seasons=1 Ratings=[400,] normamps=142 emergamps=142 phases=1 enabled=true
New "Line.oh_b60924" bus1=b60868.3 bus2=b60924.3 length=20.4216 units=m linecode=oh-1x_4cu_4cun Seasons=1 Ratings=[400,] normamps=142 emergamps=142 phases=1 enabled=true
New "Line.oh_b60925" bus1=b60924.3 bus2=b60925.3 length=50.5968 units=m linecode=oh-1x_4cu_4cun Seasons=1 Ratings=[400,] normamps=142 emergamps=142 phases=1 enabled=true
New "Line.b60925-1-c_cust1" phases=1 bus1=x_b60925-c.3 bus2=x_b60925_cust1-c.3 length=0.1 linecode=1/0a Seasons=1 Ratings=[400,] normamps=202 emergamps=252.5 units=kft
New "Line.b60925-1-c_cust2" phases=1 bus1=x_b60925-c.3 bus2=x_b60925_cust2-c.3 length=0.1 linecode=1/0a Seasons=1 Ratings=[400,] normamps=202 emergamps=252.5 units=kft
New "Line.oh_b60926" bus1=b60925.3 bus2=b60926.3 length=59.1312 units=m linecode=oh-1x_4cu_4cun Seasons=1 Ratings=[400,] normamps=142 emergamps=142 phases=1 enabled=true
New "Line.b60926-1-c_cust1" phases=1 bus1=x_b60926-c.3 bus2=x_b60926_cust1-c.3 length=0.1 linecode=1/0a Seasons=1 Ratings=[400,] normamps=202 emergamps=252.5 units=kft
New "Line.oh_b60928" bus1=b60926.3 bus2=b60928.3 length=117.0432 units=m linecode=oh-1x_4cu_4cun Seasons=1 Ratings=[400,] normamps=142 emergamps=142 phases=1 enabled=true
New "Line.oh_b60930" bus1=b60928.3 bus2=b60930.3 length=57.912 units=m linecode=oh-1x_4cu_4cun Seasons=1 Ratings=[400,] normamps=142 emergamps=142 phases=1 enabled=true
New "Line.b60930-1-c_cust1" phases=1 bus1=x_b60930-c.3 bus2=x_b60930_cust1-c.3 length=0.1 linecode=1/0a Seasons=1 Ratings=[400,] normamps=202 emergamps=252.5 units=kft
New "Line.oh_b60931" bus1=b60930.3 bus2=b60931.3 length=60.0456 units=m linecode=oh-1x_4cu_4cun Seasons=1 Ratings=[400,] normamps=142 emergamps=142 phases=1 enabled=true
New "Line.b60931-1-c_cust1" phases=1 bus1=x_b60931-c.3 bus2=x_b60931_cust1-c.3 length=0.1 linecode=1/0a Seasons=1 Ratings=[400,] normamps=202 emergamps=252.5 units=kft
New "Line.oh_b60933" bus1=b60931.3 bus2=b60933.3 length=113.0808 units=m linecode=oh-1x_4cu_4cun Seasons=1 Ratings=[400,] normamps=142 emergamps=142 phases=1 enabled=true
New "Line.b60933-1-c_cust1" phases=1 bus1=x_b60933-c.3 bus2=x_b60933_cust1-c.3 length=0.1 linecode=1/0a Seasons=1 Ratings=[400,] normamps=202 emergamps=252.5 units=kft
New "Line.b60933-1-c_cust2" phases=1 bus1=x_b60933-c.3 bus2=x_b60933_cust2-c.3 length=0.1 linecode=1/0a Seasons=1 Ratings=[400,] normamps=202 emergamps=252.5 units=kft
New "Line.oh_b60934" bus1=b60933.3 bus2=b60934.3 length=60.6552 units=m linecode=oh-1x_4cu_4cun Seasons=1 Ratings=[400,] normamps=142 emergamps=142 phases=1 enabled=true
New "Line.b60934-1-c_cust1" phases=1 bus1=x_b60934-c.3 bus2=x_b60934_cust1-c.3 length=0.1 linecode=1/0a Seasons=1 Ratings=[400,] normamps=202 emergamps=252.5 units=kft
New "Line.b60934-1-c_cust2" phases=1 bus1=x_b60934-c.3 bus2=x_b60934_cust2-c.3 length=0.1 linecode=1/0a Seasons=1 Ratings=[400,] normamps=202 emergamps=252.5 units=kft
New "Line.oh_b60936" bus1=b60934.3 bus2=b60936.3 length=91.7448 units=m linecode=oh-1x_4cu_4cun Seasons=1 Ratings=[400,] normamps=142 emergamps=142 phases=1 enabled=true
New "Line.oh_g43132" bus1=b60936.3 bus2=g43132.3 length=34.4424 units=m linecode=oh-1x_4cu_4cun Seasons=1 Ratings=[400,] normamps=142 emergamps=142 phases=1 enabled=true
New "Line.oh_g43133" bus1=g43132.3 bus2=g43133.3 length=46.3296 units=m linecode=oh-1x_4cu_4cun Seasons=1 Ratings=[400,] normamps=142 emergamps=142 phases=1 enabled=true
New "Line.oh_g43135" bus1=g43133.3 bus2=g43135.3 length=107.2896 units=m linecode=oh-1x_4cu_4cun Seasons=1 Ratings=[400,] normamps=142 emergamps=142 phases=1 enabled=true
New "Line.g43135-1-c_cust1" phases=1 bus1=x_g43135-c.3 bus2=x_g43135_cust1-c.3 length=0.1 linecode=1/0a Seasons=1 Ratings=[400,] normamps=202 emergamps=252.5 units=kft
New "Line.oh_5957328181" bus1=g43133.3 bus2=5957328181.3 length=127.1016 units=m linecode=oh-1x_2aaac_2aaacn Seasons=1 Ratings=[400,] normamps=155 emergamps=183 phases=1 enabled=true
New "Line.5957328181-1-c_cust1" phases=1 bus1=x_5957328181-c.3 bus2=x_5957328181_cust1-c.3 length=0.1 linecode=1/0a Seasons=1 Ratings=[400,] normamps=202 emergamps=252.5 units=kft
New "Line.oh_b60937" bus1=b60936.3 bus2=b60937.3 length=45.72 units=m linecode=oh-1x_4cu_4cun Seasons=1 Ratings=[400,] normamps=142 emergamps=142 phases=1 enabled=true
New "Line.b60937-1-c_cust1" phases=1 bus1=x_b60937-c.3 bus2=x_b60937_cust1-c.3 length=0.1 linecode=1/0a Seasons=1 Ratings=[400,] normamps=202 emergamps=252.5 units=kft
New "Line.oh_b60938" bus1=b60937.3 bus2=b60938.3 length=61.2648 units=m linecode=oh-1x_4cu_4cun Seasons=1 Ratings=[400,] normamps=142 emergamps=142 phases=1 enabled=true
New "Line.b60938-1-c_cust1" phases=1 bus1=x_b60938-c.3 bus2=x_b60938_cust1-c.3 length=0.1 linecode=1/0a Seasons=1 Ratings=[400,] normamps=202 emergamps=252.5 units=kft
New "Line.oh_b60939" bus1=b60938.3 bus2=b60939.3 length=33.8328 units=m linecode=oh-1x_4cu_4cun Seasons=1 Ratings=[400,] normamps=142 emergamps=142 phases=1 enabled=true
New "Line.b60939-1-c_cust1" phases=1 bus1=x_b60939-c.3 bus2=x_b60939_cust1-c.3 length=0.1 linecode=1/0a Seasons=1 Ratings=[400,] normamps=202 emergamps=252.5 units=kft
New "Line.b60939-1-c_cust2" phases=1 bus1=x_b60939-c.3 bus2=x_b60939_cust2-c.3 length=0.1 linecode=1/0a Seasons=1 Ratings=[400,] normamps=202 emergamps=252.5 units=kft
New "Line.b60939-1-c_cust3" phases=1 bus1=x_b60939-c.3 bus2=x_b60939_cust3-c.3 length=0.1 linecode=1/0a Seasons=1 Ratings=[400,] normamps=202 emergamps=252.5 units=kft
New "Line.oh_b60940" bus1=b60939.3 bus2=b60940.3 length=88.6968 units=m linecode=oh-1x_4cu_4cun Seasons=1 Ratings=[400,] normamps=142 emergamps=142 phases=1 enabled=true
New "Line.b60940-1-c_cust1" phases=1 bus1=x_b60940-c.3 bus2=x_b60940_cust1-c.3 length=0.1 linecode=1/0a Seasons=1 Ratings=[400,] normamps=202 emergamps=252.5 units=kft
New "Line.b60940-1-c_cust2" phases=1 bus1=x_b60940-c.3 bus2=x_b60940_cust2-c.3 length=0.1 linecode=1/0a Seasons=1 Ratings=[400,] normamps=202 emergamps=252.5 units=kft
New "Line.b60940-1-c_cust3" phases=1 bus1=x_b60940-c.3 bus2=x_b60940_cust3-c.3 length=0.1 linecode=1/0a Seasons=1 Ratings=[400,] normamps=202 emergamps=252.5 units=kft
New "Line.oh_b60941" bus1=b60940.3 bus2=b60941.3 length=45.1104 units=m linecode=oh-1x_4cu_4cun Seasons=1 Ratings=[400,] normamps=142 emergamps=142 phases=1 enabled=true
New "Line.oh_b60942" bus1=b60941.3 bus2=b60942.3 length=3.048 units=m linecode=oh-1x_2aaac_2aaacn Seasons=1 Ratings=[400,] normamps=155 emergamps=183 phases=1 enabled=true
New "Line.oh_b60943" bus1=b60942.3 bus2=b60943.3 length=46.3296 units=m linecode=oh-1x_4cu_4cun Seasons=1 Ratings=[400,] normamps=142 emergamps=142 phases=1 enabled=true
New "Line.b60943-1-c_cust1" phases=1 bus1=x_b60943-c.3 bus2=x_b60943_cust1-c.3 length=0.1 linecode=1/0a Seasons=1 Ratings=[400,] normamps=202 emergamps=252.5 units=kft
New "Line.oh_5939428169" bus1=b60943.3 bus2=5939428169.3 length=91.44 units=m linecode=oh-1x_2aaac_2aaacn Seasons=1 Ratings=[400,] normamps=155 emergamps=183 phases=1 enabled=true
New "Line.oh_5938028173" bus1=5939428169.3 bus2=5938028173.3 length=45.72 units=m linecode=oh-1x_2aaac_2aaacn Seasons=1 Ratings=[400,] normamps=155 emergamps=183 phases=1 enabled=true
New "Line.oh_5938428177" bus1=5938028173.3 bus2=5938428177.3 length=18.288 units=m linecode=oh-1x_2aaac_2aaacn Seasons=1 Ratings=[400,] normamps=155 emergamps=183 phases=1 enabled=true
New "Line.oh_5939228210" bus1=5938428177.3 bus2=5939228210.3 length=97.536 units=m linecode=oh-1x_2aaac_2aaacn Seasons=1 Ratings=[400,] normamps=155 emergamps=183 phases=1 enabled=true
New "Line.5939228210-1-c_cust1" phases=1 bus1=x_5939228210-c.3 bus2=x_5939228210_cust1-c.3 length=0.1 linecode=1/0a Seasons=1 Ratings=[400,] normamps=202 emergamps=252.5 units=kft
New "Line.oh_5934528183" bus1=5938028173.3 bus2=5934528183.3 length=109.728 units=m linecode=oh-1x_2aaac_2aaacn Seasons=1 Ratings=[400,] normamps=155 emergamps=183 phases=1 enabled=true
New "Line.oh_5931028193" bus1=5934528183.3 bus2=5931028193.3 length=109.728 units=m linecode=oh-1x_2aaac_2aaacn Seasons=1 Ratings=[400,] normamps=155 emergamps=183 phases=1 enabled=true
New "Line.oh_5929328198" bus1=5931028193.3 bus2=5929328198.3 length=115.824 units=m linecode=oh-1x_2aaac_2aaacn Seasons=1 Ratings=[400,] normamps=155 emergamps=183 phases=1 enabled=true
New "Line.ug_5927928223" bus1=5929328198.3 bus2=5927928223.3 length=88.392 units=m linecode=ug-1c1/0alurd_15 Seasons=1 Ratings=[400,] normamps=170 emergamps=180 phases=1 enabled=true
New "Line.5927928223-1-c_cust1" phases=1 bus1=x_5927928223-c.3 bus2=x_5927928223_cust1-c.3 length=0.1 linecode=1/0a Seasons=1 Ratings=[400,] normamps=202 emergamps=252.5 units=kft
New "Line.oh_5925528209" bus1=5929328198.3 bus2=5925528209.3 length=42.0624 units=m linecode=oh-1x_2aaac_2aaacn Seasons=1 Ratings=[400,] normamps=155 emergamps=183 phases=1 enabled=true
New "Line.oh_5927328209" bus1=5925528209.3 bus2=5927328209.3 length=22.86 units=m linecode=oh-1x_2aaac_2aaacn Seasons=1 Ratings=[400,] normamps=155 emergamps=183 phases=1 enabled=true
New "Line.oh_5927628217" bus1=5927328209.3 bus2=5927628217.3 length=27.432 units=m linecode=oh-1x_2aaac_2aaacn Seasons=1 Ratings=[400,] normamps=155 emergamps=183 phases=1 enabled=true
New "Line.5927628217-1-c_cust1" phases=1 bus1=x_5927628217-c.3 bus2=x_5927628217_cust1-c.3 length=0.1 linecode=1/0a Seasons=1 Ratings=[400,] normamps=202 emergamps=252.5 units=kft
New "Line.oh_5925528209a" bus1=5925528209.3 bus2=5925528209a.3 length=61.2648 units=m linecode=oh-1x_1/0acsr_1/0acsrn Seasons=1 Ratings=[400,] normamps=269 emergamps=319 phases=1 enabled=true
New "Line.oh_5931328198" bus1=5931028193.3 bus2=5931328198.3 length=16.764 units=m linecode=oh-1x_2aaac_2aaacn Seasons=1 Ratings=[400,] normamps=155 emergamps=183 phases=1 enabled=true
New "Line.oh_5931928222" bus1=5931328198.3 bus2=5931928222.3 length=79.248 units=m linecode=oh-1x_2aaac_2aaacn Seasons=1 Ratings=[400,] normamps=155 emergamps=183 phases=1 enabled=true
New "Line.5931928222-1-c_cust1" phases=1 bus1=x_5931928222-c.3 bus2=x_5931928222_cust1-c.3 length=0.1 linecode=1/0a Seasons=1 Ratings=[400,] normamps=202 emergamps=252.5 units=kft
New "Line.oh_5934528196" bus1=5934528183.3 bus2=5934528196.3 length=39.624 units=m linecode=oh-1x_2aaac_2aaacn Seasons=1 Ratings=[400,] normamps=155 emergamps=183 phases=1 enabled=true
New "Line.oh_5934828209" bus1=5934528196.3 bus2=5934828209.3 length=39.624 units=m linecode=oh-1x_2aaac_2aaacn Seasons=1 Ratings=[400,] normamps=155 emergamps=183 phases=1 enabled=true
New "Line.5934828209-1-c_cust1" phases=1 bus1=x_5934828209-c.3 bus2=x_5934828209_cust1-c.3 length=0.1 linecode=1/0a Seasons=1 Ratings=[400,] normamps=202 emergamps=252.5 units=kft
New "Line.oh_5940028185" bus1=5939428169.3 bus2=5940028185.3 length=53.34 units=m linecode=oh-1x_2aaac_2aaacn Seasons=1 Ratings=[400,] normamps=155 emergamps=183 phases=1 enabled=true
New "Line.oh_5940428202" bus1=5940028185.3 bus2=5940428202.3 length=53.34 units=m linecode=oh-1x_2aaac_2aaacn Seasons=1 Ratings=[400,] normamps=155 emergamps=183 phases=1 enabled=true
New "Line.5940428202-1-c_cust1" phases=1 bus1=x_5940428202-c.3 bus2=x_5940428202_cust1-c.3 length=0.1 linecode=1/0a Seasons=1 Ratings=[400,] normamps=202 emergamps=252.5 units=kft
New "Line.oh_5944628156" bus1=b60941.3 bus2=5944628156.3 length=22.86 units=m linecode=oh-1x_2aaac_2aaacn Seasons=1 Ratings=[400,] normamps=155 emergamps=183 phases=1 enabled=true
New "Line.oh_5944828194" bus1=5944628156.3 bus2=5944828194.3 length=126.492 units=m linecode=oh-1x_2aaac_2aaacn Seasons=1 Ratings=[400,] normamps=155 emergamps=183 phases=1 enabled=true
New "Line.5944828194-1-c_cust1" phases=1 bus1=x_5944828194-c.3 bus2=x_5944828194_cust1-c.3 length=0.1 linecode=1/0a Seasons=1 Ratings=[400,] normamps=202 emergamps=252.5 units=kft
New "Line.oh_g42979" bus1=b60931.3 bus2=g42979.3 length=29.2608 units=m linecode=oh-1x_2aaac_2aaacn Seasons=1 Ratings=[400,] normamps=155 emergamps=183 phases=1 enabled=true
New "Line.g42979-1-c_cust1" phases=1 bus1=x_g42979-c.3 bus2=x_g42979_cust1-c.3 length=0.1 linecode=1/0a Seasons=1 Ratings=[400,] normamps=202 emergamps=252.5 units=kft
New "Line.oh_b61248" bus1=b60928.3 bus2=b61248.3 length=18.8976 units=m linecode=oh-1x_4cu_4cun Seasons=1 Ratings=[400,] normamps=142 emergamps=142 phases=1 enabled=true
New "Line.oh_b61249" bus1=b61248.3 bus2=b61249.3 length=45.1104 units=m linecode=oh-1x_4cu_4cun Seasons=1 Ratings=[400,] normamps=142 emergamps=142 phases=1 enabled=true
New "Line.b61249-1-c_cust1" phases=1 bus1=x_b61249-c.3 bus2=x_b61249_cust1-c.3 length=0.1 linecode=1/0a Seasons=1 Ratings=[400,] normamps=202 emergamps=252.5 units=kft
New "Line.oh_b60870" bus1=b60868.3 bus2=b60870.3 length=105.7656 units=m linecode=oh-1x_4cu_4cun Seasons=1 Ratings=[400,] normamps=142 emergamps=142 phases=1 enabled=true
New "Line.b60870-1-c_cust1" phases=1 bus1=x_b60870-c.3 bus2=x_b60870_cust1-c.3 length=0.1 linecode=1/0a Seasons=1 Ratings=[400,] normamps=202 emergamps=252.5 units=kft
New "Line.b60870-1-c_cust2" phases=1 bus1=x_b60870-c.3 bus2=x_b60870_cust2-c.3 length=0.1 linecode=1/0a Seasons=1 Ratings=[400,] normamps=202 emergamps=252.5 units=kft
New "Line.oh_b60872" bus1=b60870.3 bus2=b60872.3 length=90.5256 units=m linecode=oh-1x_4cu_4cun Seasons=1 Ratings=[400,] normamps=142 emergamps=142 phases=1 enabled=true
New "Line.b60872-1-c_cust1" phases=1 bus1=x_b60872-c.3 bus2=x_b60872_cust1-c.3 length=0.1 linecode=1/0a Seasons=1 Ratings=[400,] normamps=202 emergamps=252.5 units=kft
New "Line.oh_b60873" bus1=b60872.3 bus2=b60873.3 length=45.72 units=m linecode=oh-1x_4cu_4cun Seasons=1 Ratings=[400,] normamps=142 emergamps=142 phases=1 enabled=true
New "Line.b60873-1-c_cust1" phases=1 bus1=x_b60873-c.3 bus2=x_b60873_cust1-c.3 length=0.1 linecode=1/0a Seasons=1 Ratings=[400,] normamps=202 emergamps=252.5 units=kft
New "Line.oh_b60874" bus1=b60873.3 bus2=b60874.3 length=60.96 units=m linecode=oh-1x_4cu_4cun Seasons=1 Ratings=[400,] normamps=142 emergamps=142 phases=1 enabled=true
...
