Test_Systems/EPRI_DPV_J1-G/j1/Transformers.dss
New "Transformer.b5218-1b" phases=1 buses=[b5218.2, x_b5218-b.2, ] conns=[wye, wye, ] kVs=[7.2, 0.24, ] kVAs=[15, 15, ] taps=[1, 1, ] wdg=1 %R=0.52 RdcOhms=15.27552 wdg=2 %R=0.52 RdcOhms=0.0169728 %loadloss=1.04 %noloadloss=0.34 XHL=1.5 normhkVA=15 emerghkVA=21
New "Transformer.b5213-1c" phases=1 buses=[b5213.3, x_b5213-c.3, ] conns=[wye, wye, ] kVs=[7.2, 0.24, ] kVAs=[15, 15, ] taps=[1, 1, ] wdg=1 %R=0.52 RdcOhms=15.27552 wdg=2 %R=0.52 RdcOhms=0.0169728 %loadloss=1.04 %noloadloss=0.34 XHL=1.5 normhkVA=15 emerghkVA=21
New "Transformer.b13220-1c" phases=1 buses=[b13220.3, x_b13220-c.3, ] conns=[wye, wye, ] kVs=[7.2, 0.24, ] kVAs=[15, 15, ] taps=[1, 1, ] wdg=1 %R=0.52 RdcOhms=15.27552 wdg=2 %R=0.52 RdcOhms=0.0169728 %loadloss=1.04 %noloadloss=0.34 XHL=1.5 normhkVA=15 emerghkVA=21
New "Transformer.b59433-1c" phases=1 buses=[b59433.3, x_b59433-c.3, ] conns=[wye, wye, ] kVs=[7.2, 0.24, ] kVAs=[15, 15, ] taps=[1, 1, ] wdg=1 %R=0.52 RdcOhms=15.27552 wdg=2 %R=0.52 RdcOhms=0.0169728 %loadloss=1.04 %noloadloss=0.34 XHL=1.5 normhkVA=15 emerghkVA=21
New "Transformer.b13752-1c" phases=1 buses=[b13752.3, x_b13752-c.3, ] conns=[wye, wye, ] kVs=[7.2, 0.24, ] kVAs=[15, 15, ] taps=[1, 1, ] wdg=1 %R=0.52 RdcOhms=15.27552 wdg=2 %R=0.52 RdcOhms=0.0169728 %loadloss=1.04 %noloadloss=0.34 XHL=1.5 normhkVA=15 emerghkVA=21
New "Transformer.b29921-1c" phases=1 buses=[b29921.3, x_b29921-c.3, ] conns=[wye, wye, ] kVs=[7.2, 0.24, ] kVAs=[15, 15, ] taps=[1, 1, ] wdg=1 %R=0.52 RdcOhms=15.27552 wdg=2 %R=0.52 RdcOhms=0.0169728 %loadloss=1.04 %noloadloss=0.34 XHL=1.5 normhkVA=15 emerghkVA=21
New "Transformer.b5209-1c" phases=1 buses=[b5209.3, x_b5209-c.3, ] conns=[wye, wye, ] kVs=[7.2, 0.24, ] kVAs=[15, 15, ] taps=[1, 1, ] wdg=1 %R=0.52 RdcOhms=15.27552 wdg=2 %R=0.52 RdcOhms=0.0169728 %loadloss=1.04 %noloadloss=0.34 XHL=1.5 normhkVA=15 emerghkVA=21
New "Transformer.b5207-1c" phases=1 buses=[b5207.3, x_b5207-c.3, ] conns=[wye, wye, ] kVs=[7.2, 0.24, ] kVAs=[15, 15, ] taps=[1, 1, ] wdg=1 %R=0.52 RdcOhms=15.27552 wdg=2 %R=0.52 RdcOhms=0.0169728 %loadloss=1.04 %noloadloss=0.34 XHL=1.5 normhkVA=15 emerghkVA=21
New "Transformer.b5206-1c" phases=1 buses=[b5206.3, x_b5206-c.3, ] conns=[wye, wye, ] kVs=[7.2, 0.24, ] kVAs=[25, 25, ] taps=[1, 1, ] wdg=1 %R=0.38195 RdcOhms=6.732098 wdg=2 %R=0.38195 RdcOhms=0.007480109 %loadloss=0.7639 %noloadloss=0.0851 XHL=2.1 normhkVA=25 emerghkVA=35
New "Transformer.b5194-1a" phases=1 buses=[b5194.1, x_b5194-a.1, ] conns=[wye, wye, ] kVs=[7.2, 0.24, ] kVAs=[38, 38, ] taps=[1, 1, ] wdg=1 %R=0.36105 RdcOhms=4.18666 wdg=2 %R=0.36105 RdcOhms=0.004651844 %loadloss=0.7221 %noloadloss=0.2423 XHL=1.5158 normhkVA=37.5 emerghkVA=53.2
New "Transformer.b5193-1b" phases=1 buses=[b5193.2, x_b5193-b.2, ] conns=[wye, wye, ] kVs=[7.2, 0.24, ] kVAs=[15, 15, ] taps=[1, 1, ] wdg=1 %R=0.52 RdcOhms=15.27552 wdg=2 %R=0.52 RdcOhms=0.0169728 %loadloss=1.04 %noloadloss=0.34 XHL=1.5 normhkVA=15 emerghkVA=21
New "Transformer.b5188-1a" phases=1 buses=[b5188.1, x_b5188-a.1, ] conns=[wye, wye, ] kVs=[7.2, 0.24, ] kVAs=[15, 15, ] taps=[1, 1, ] wdg=1 %R=0.52 RdcOhms=15.27552 wdg=2 %R=0.52 RdcOhms=0.0169728 %loadloss=1.04 %noloadloss=0.34 XHL=1.5 normhkVA=15 emerghkVA=21
New "Transformer.b5186-1b" phases=1 buses=[b5186.2, x_b5186-b.2, ] conns=[wye, wye, ] kVs=[7.2, 0.24, ] kVAs=[15, 15, ] taps=[1, 1, ] wdg=1 %R=0.52 RdcOhms=15.27552 wdg=2 %R=0.52 RdcOhms=0.0169728 %loadloss=1.04 %noloadloss=0.34 XHL=1.5 normhkVA=15 emerghkVA=21
New "Transformer.b5185-1c" phases=1 buses=[b5185.3, x_b5185-c.3, ] conns=[wye, wye, ] kVs=[7.2, 0.24, ] kVAs=[25, 25, ] taps=[1, 1, ] wdg=1 %R=0.38195 RdcOhms=6.732098 wdg=2 %R=0.38195 RdcOhms=0.007480109 %loadloss=0.7639 %noloadloss=0.0851 XHL=2.1 normhkVA=25 emerghkVA=35
New "Transformer.b11365-1c" phases=1 buses=[b11365.3, x_b11365-c.3, ] conns=[wye, wye, ] kVs=[7.2, 0.24, ] kVAs=[20, 20, ] taps=[1, 1, ] wdg=1 %R=0.52 RdcOhms=11.45664 wdg=2 %R=0.52 RdcOhms=0.0127296 %loadloss=1.04 %noloadloss=0.34 XHL=1.5 normhkVA=20 emerghkVA=28
New "Transformer.b11365-1b" phases=1 buses=[b11365.2, x_b11365-b.2, ] conns=[wye, wye, ] kVs=[7.2, 0.24, ] kVAs=[20, 20, ] taps=[1, 1, ] wdg=1 %R=0.52 RdcOhms=11.45664 wdg=2 %R=0.52 RdcOhms=0.0127296 %loadloss=1.04 %noloadloss=0.34 XHL=1.5 normhkVA=20 emerghkVA=28
New "Transformer.b11367-1b" phases=1 buses=[b11367.2, x_b11367-b.2, ] conns=[wye, wye, ] kVs=[7.2, 0.24, ] kVAs=[25, 25, ] taps=[1, 1, ] wdg=1 %R=0.38195 RdcOhms=6.732098 wdg=2 %R=0.38195 RdcOhms=0.007480109 %loadloss=0.7639 %noloadloss=0.0851 XHL=2.1 normhkVA=25 emerghkVA=35
New "Transformer.b11368-1b" phases=1 buses=[b11368.2, x_b11368-b.2, ] conns=[wye, wye, ] kVs=[7.2, 0.24, ] kVAs=[15, 15, ] taps=[1, 1, ] wdg=1 %R=0.52 RdcOhms=15.27552 wdg=2 %R=0.52 RdcOhms=0.0169728 %loadloss=1.04 %noloadloss=0.34 XHL=1.5 normhkVA=15 emerghkVA=21
New "Transformer.b11418-1b" phases=1 buses=[b11418.2, x_b11418-b.2, ] conns=[wye, wye, ] kVs=[7.2, 0.24, ] kVAs=[25, 25, ] taps=[1, 1, ] wdg=1 %R=0.38195 RdcOhms=6.732098 wdg=2 %R=0.38195 RdcOhms=0.007480109 %loadloss=0.7639 %noloadloss=0.0851 XHL=2.1 normhkVA=25 emerghkVA=35
New "Transformer.b2526-1b" phases=1 buses=[b2526.2, x_b2526-b.2, ] conns=[wye, wye, ] kVs=[7.2, 0.24, ] kVAs=[15, 15, ] taps=[1, 1, ] wdg=1 %R=0.52 RdcOhms=15.27552 wdg=2 %R=0.52 RdcOhms=0.0169728 %loadloss=1.04 %noloadloss=0.34 XHL=1.5 normhkVA=15 emerghkVA=21
New "Transformer.b2532-1a" phases=1 buses=[b2532.1, x_b2532-a.1, ] conns=[wye, wye, ] kVs=[7.2, 0.24, ] kVAs=[15, 15, ] taps=[1, 1, ] wdg=1 %R=0.52 RdcOhms=15.27552 wdg=2 %R=0.52 RdcOhms=0.0169728 %loadloss=1.04 %noloadloss=0.34 XHL=1.5 normhkVA=15 emerghkVA=21
New "Transformer.b29178-1a" phases=1 buses=[b29178.1, x_b29178-a.1, ] conns=[wye, wye, ] kVs=[7.2, 0.24, ] kVAs=[15, 15, ] taps=[1, 1, ] wdg=1 %R=0.52 RdcOhms=15.27552 wdg=2 %R=0.52 RdcOhms=0.0169728 %loadloss=1.04 %noloadloss=0.34 XHL=1.5 normhkVA=15 emerghkVA=21
New "Transformer.b29179-1c" phases=1 buses=[b29179.3, x_b29179-c.3, ] conns=[wye, wye, ] kVs=[7.2, 0.24, ] kVAs=[15, 15, ] taps=[1, 1, ] wdg=1 %R=0.52 RdcOhms=15.27552 wdg=2 %R=0.52 RdcOhms=0.0169728 %loadloss=1.04 %noloadloss=0.34 XHL=1.5 normhkVA=15 emerghkVA=21
New "Transformer.b29179-1a" phases=1 buses=[b29179.1, x_b29179-a.1, ] conns=[wye, wye, ] kVs=[7.2, 0.24, ] kVAs=[15, 15, ] taps=[1, 1, ] wdg=1 %R=0.52 RdcOhms=15.27552 wdg=2 %R=0.52 RdcOhms=0.0169728 %loadloss=1.04 %noloadloss=0.34 XHL=1.5 normhkVA=15 emerghkVA=21
New "Transformer.b29181-1a" phases=1 buses=[b29181.1, x_b29181-a.1, ] conns=[wye, wye, ] kVs=[7.2, 0.24, ] kVAs=[15, 15, ] taps=[1, 1, ] wdg=1 %R=0.52 RdcOhms=15.27552 wdg=2 %R=0.52 RdcOhms=0.0169728 %loadloss=1.04 %noloadloss=0.34 XHL=1.5 normhkVA=15 emerghkVA=21
New "Transformer.b42005-1a" phases=1 buses=[b42005.1, x_b42005-a.1, ] conns=[wye, wye, ] kVs=[7.2, 0.24, ] kVAs=[25, 25, ] taps=[1, 1, ] wdg=1 %R=0.38195 RdcOhms=6.732098 wdg=2 %R=0.38195 RdcOhms=0.007480109 %loadloss=0.7639 %noloadloss=0.0851 XHL=2.1 normhkVA=25 emerghkVA=35
New "Transformer.5912527743-1a" phases=1 buses=[5912527743.1, x_5912527743-a.1, ] conns=[wye, wye, ] kVs=[7.2, 0.24, ] kVAs=[75, 75, ] taps=[1, 1, ] wdg=1 %R=0.3789 RdcOhms=2.226113 wdg=2 %R=0.3789 RdcOhms=0.002473459 %loadloss=0.7578 %noloadloss=0.1348 XHL=2.41 normhkVA=75 emerghkVA=105
New "Transformer.b16658-1a" phases=1 buses=[b16658.1, x_b16658-a.1, ] conns=[wye, wye, ] kVs=[7.2, 0.24, ] kVAs=[15, 15, ] taps=[1, 1, ] wdg=1 %R=0.52 RdcOhms=15.27552 wdg=2 %R=0.52 RdcOhms=0.0169728 %loadloss=1.04 %noloadloss=0.34 XHL=1.5 normhkVA=15 emerghkVA=21
New "Transformer.b22569-1a" phases=1 buses=[b22569.1, x_b22569-a.1, ] conns=[wye, wye, ] kVs=[7.2, 0.24, ] kVAs=[15, 15, ] taps=[1, 1, ] wdg=1 %R=0.52 RdcOhms=15.27552 wdg=2 %R=0.52 RdcOhms=0.0169728 %loadloss=1.04 %noloadloss=0.34 XHL=1.5 normhkVA=15 emerghkVA=21
New "Transformer.b22565-1a" phases=1 buses=[b22565.1, x_b22565-a.1, ] conns=[wye, wye, ] kVs=[7.2, 0.24, ] kVAs=[15, 15, ] taps=[1, 1, ] wdg=1 %R=0.52 RdcOhms=15.27552 wdg=2 %R=0.52 RdcOhms=0.0169728 %loadloss=1.04 %noloadloss=0.34 XHL=1.5 normhkVA=15 emerghkVA=21
New "Transformer.g42777-1c" phases=1 buses=[g42777.3, x_g42777-c.3, ] conns=[wye, wye, ] kVs=[7.2, 0.24, ] kVAs=[15, 15, ] taps=[1, 1, ] wdg=1 %R=0.52 RdcOhms=15.27552 wdg=2 %R=0.52 RdcOhms=0.0169728 %loadloss=1.04 %noloadloss=0.34 XHL=1.5 normhkVA=15 emerghkVA=21
New "Transformer.b22157-1c" phases=1 buses=[b22157.3, x_b22157-c.3, ] conns=[wye, wye, ] kVs=[7.2, 0.24, ] kVAs=[15, 15, ] taps=[1, 1, ] wdg=1 %R=0.52 RdcOhms=15.27552 wdg=2 %R=0.52 RdcOhms=0.0169728 %loadloss=1.04 %noloadloss=0.34 XHL=1.5 normhkVA=15 emerghkVA=21
New "Transformer.b36180-1c" phases=1 buses=[b36180.3, x_b36180-c.3, ] conns=[wye, wye, ] kVs=[7.2, 0.24, ] kVAs=[15, 15, ] taps=[1, 1, ] wdg=1 %R=0.52 RdcOhms=15.27552 wdg=2 %R=0.52 RdcOhms=0.0169728 %loadloss=1.04 %noloadloss=0.34 XHL=1.5 normhkVA=15 emerghkVA=21
New "Transformer.b36181-1c" phases=1 buses=[b36181.3, x_b36181-c.3, ] conns=[wye, wye, ] kVs=[7.2, 0.24, ] kVAs=[15, 15, ] taps=[1, 1, ] wdg=1 %R=0.52 RdcOhms=15.27552 wdg=2 %R=0.52 RdcOhms=0.0169728 %loadloss=1.04 %noloadloss=0.34 XHL=1.5 normhkVA=15 emerghkVA=21
New "Transformer.b36183-1c" phases=1 buses=[b36183.3, x_b36183-c.3, ] conns=[wye, wye, ] kVs=[7.2, 0.24, ] kVAs=[15, 15, ] taps=[1, 1, ] wdg=1 %R=0.52 RdcOhms=15.27552 wdg=2 %R=0.52 RdcOhms=0.0169728 %loadloss=1.04 %noloadloss=0.34 XHL=1.5 normhkVA=15 emerghkVA=21
New "Transformer.b60867-1c" phases=1 buses=[b60867.3, x_b60867-c.3, ] conns=[wye, wye, ] kVs=[7.2, 0.24, ] kVAs=[15, 15, ] taps=[1, 1, ] wdg=1 %R=0.52 RdcOhms=15.27552 wdg=2 %R=0.52 RdcOhms=0.0169728 %loadloss=1.04 %noloadloss=0.34 XHL=1.5 normhkVA=15 emerghkVA=21
New "Transformer.b60925-1c" phases=1 buses=[b60925.3, x_b60925-c.3, ] conns=[wye, wye, ] kVs=[7.2, 0.24, ] kVAs=[25, 25, ] taps=[1, 1, ] wdg=1 %R=0.38195 RdcOhms=6.732098 wdg=2 %R=0.38195 RdcOhms=0.007480109 %loadloss=0.7639 %noloadloss=0.0851 XHL=2.1 normhkVA=25 emerghkVA=35
New "Transformer.b60926-1c" phases=1 buses=[b60926.3, x_b60926-c.3, ] conns=[wye, wye, ] kVs=[7.2, 0.24, ] kVAs=[25, 25, ] taps=[1, 1, ] wdg=1 %R=0.38195 RdcOhms=6.732098 wdg=2 %R=0.38195 RdcOhms=0.007480109 %loadloss=0.7639 %noloadloss=0.0851 XHL=2.1 normhkVA=25 emerghkVA=35
New "Transformer.b60930-1c" phases=1 buses=[b60930.3, x_b60930-c.3, ] conns=[wye, wye, ] kVs=[7.2, 0.24, ] kVAs=[25, 25, ] taps=[1, 1, ] wdg=1 %R=0.38195 RdcOhms=6.732098 wdg=2 %R=0.38195 RdcOhms=0.007480109 %loadloss=0.7639 %noloadloss=0.0851 XHL=2.1 normhkVA=25 emerghkVA=35
New "Transformer.b60931-1c" phases=1 buses=[b60931.3, x_b60931-c.3, ] conns=[wye, wye, ] kVs=[7.2, 0.24, ] kVAs=[25, 25, ] taps=[1, 1, ] wdg=1 %R=0.38195 RdcOhms=6.732098 wdg=2 %R=0.38195 RdcOhms=0.007480109 %loadloss=0.7639 %noloadloss=0.0851 XHL=2.1 normhkVA=25 emerghkVA=35
New "Transformer.b60933-1c" phases=1 buses=[b60933.3, x_b60933-c.3, ] conns=[wye, wye, ] kVs=[7.2, 0.24, ] kVAs=[25, 25, ] taps=[1, 1, ] wdg=1 %R=0.38195 RdcOhms=6.732098 wdg=2 %R=0.38195 RdcOhms=0.007480109 %loadloss=0.7639 %noloadloss=0.0851 XHL=2.1 normhkVA=25 emerghkVA=35
New "Transformer.b60934-1c" phases=1 buses=[b60934.3, x_b60934-c.3, ] conns=[wye, wye, ] kVs=[7.2, 0.24, ] kVAs=[15, 15, ] taps=[1, 1, ] wdg=1 %R=0.52 RdcOhms=15.27552 wdg=2 %R=0.52 RdcOhms=0.0169728 %loadloss=1.04 %noloadloss=0.34 XHL=1.5 normhkVA=15 emerghkVA=21
New "Transformer.g43135-1c" phases=1 buses=[g43135.3, x_g43135-c.3, ] conns=[wye, wye, ] kVs=[7.2, 0.24, ] kVAs=[25, 25, ] taps=[1, 1, ] wdg=1 %R=0.38195 RdcOhms=6.732098 wdg=2 %R=0.38195 RdcOhms=0.007480109 %loadloss=0.7639 %noloadloss=0.0851 XHL=2.1 normhkVA=25 emerghkVA=35
New "Transformer.5957328181-1c" phases=1 buses=[5957328181.3, x_5957328181-c.3, ] conns=[wye, wye, ] kVs=[7.2, 0.24, ] kVAs=[25, 25, ] taps=[1, 1, ] wdg=1 %R=0.38195 RdcOhms=6.732098 wdg=2 %R=0.38195 RdcOhms=0.007480109 %loadloss=0.7639 %noloadloss=0.0851 XHL=2.1 normhkVA=25 emerghkVA=35
New "Transformer.b60937-1c" phases=1 buses=[b60937.3, x_b60937-c.3, ] conns=[wye, wye, ] kVs=[7.2, 0.24, ] kVAs=[25, 25, ] taps=[1, 1, ] wdg=1 %R=0.38195 RdcOhms=6.732098 wdg=2 %R=0.38195 RdcOhms=0.007480109 %loadloss=0.7639 %noloadloss=0.0851 XHL=2.1 normhkVA=25 emerghkVA=35
New "Transformer.b60938-1c" phases=1 buses=[b60938.3, x_b60938-c.3, ] conns=[wye, wye, ] kVs=[7.2, 0.24, ] kVAs=[15, 15, ] taps=[1, 1, ] wdg=1 %R=0.52 RdcOhms=15.27552 wdg=2 %R=0.52 RdcOhms=0.0169728 %loadloss=1.04 %noloadloss=0.34 XHL=1.5 normhkVA=15 emerghkVA=21
New "Transformer.b60939-1c" phases=1 buses=[b60939.3, x_b60939-c.3, ] conns=[wye, wye, ] kVs=[7.2, 0.24, ] kVAs=[38, 38, ] taps=[1, 1, ] wdg=1 %R=0.36105 RdcOhms=4.18666 wdg=2 %R=0.36105 RdcOhms=0.004651844 %loadloss=0.7221 %noloadloss=0.2423 XHL=1.5158 normhkVA=37.5 emerghkVA=53.2
New "Transformer.b60940-1c" phases=1 buses=[b60940.3, x_b60940-c.3, ] conns=[wye, wye, ] kVs=[7.2, 0.24, ] kVAs=[25, 25, ] taps=[1, 1, ] wdg=1 %R=0.38195 RdcOhms=6.732098 wdg=2 %R=0.38195 RdcOhms=0.007480109 %loadloss=0.7639 %noloadloss=0.0851 XHL=2.1 normhkVA=25 emerghkVA=35
New "Transformer.b60943-1c" phases=1 buses=[b60943.3, x_b60943-c.3, ] conns=[wye, wye, ] kVs=[7.2, 0.24, ] kVAs=[15, 15, ] taps=[1, 1, ] wdg=1 %R=0.52 RdcOhms=15.27552 wdg=2 %R=0.52 RdcOhms=0.0169728 %loadloss=1.04 %noloadloss=0.34 XHL=1.5 normhkVA=15 emerghkVA=21
New "Transformer.5939228210-1c" phases=1 buses=[5939228210.3, x_5939228210-c.3, ] conns=[wye, wye, ] kVs=[7.2, 0.24, ] kVAs=[25, 25, ] taps=[1, 1, ] wdg=1 %R=0.38195 RdcOhms=6.732098 wdg=2 %R=0.38195 RdcOhms=0.007480109 %loadloss=0.7639 %noloadloss=0.0851 XHL=2.1 normhkVA=25 emerghkVA=35
New "Transformer.5927928223-1c" phases=1 buses=[5927928223.3, x_5927928223-c.3, ] conns=[wye, wye, ] kVs=[7.2, 0.24, ] kVAs=[25, 25, ] taps=[1, 1, ] wdg=1 %R=0.38195 RdcOhms=6.732098 wdg=2 %R=0.38195 RdcOhms=0.007480109 %loadloss=0.7639 %noloadloss=0.0851 XHL=2.1 normhkVA=25 emerghkVA=35
New "Transformer.5927628217-1c" phases=1 buses=[5927628217.3, x_5927628217-c.3, ] conns=[wye, wye, ] kVs=[7.2, 0.24, ] kVAs=[25, 25, ] taps=[1, 1, ] wdg=1 %R=0.38195 RdcOhms=6.732098 wdg=2 %R=0.38195 RdcOhms=0.007480109 %loadloss=0.7639 %noloadloss=0.0851 XHL=2.1 normhkVA=25 emerghkVA=35
New "Transformer.5931928222-1c" phases=1 buses=[5931928222.3, x_5931928222-c.3, ] conns=[wye, wye, ] kVs=[7.2, 0.24, ] kVAs=[25, 25, ] taps=[1, 1, ] wdg=1 %R=0.38195 RdcOhms=6.732098 wdg=2 %R=0.38195 RdcOhms=0.007480109 %loadloss=0.7639 %noloadloss=0.0851 XHL=2.1 normhkVA=25 emerghkVA=35
New "Transformer.5934828209-1c" phases=1 buses=[5934828209.3, x_5934828209-c.3, ] conns=[wye, wye, ] kVs=[7.2, 0.24, ] kVAs=[25, 25, ] taps=[1, 1, ] wdg=1 %R=0.38195 RdcOhms=6.732098 wdg=2 %R=0.38195 RdcOhms=0.007480109 %loadloss=0.7639 %noloadloss=0.0851 XHL=2.1 normhkVA=25 emerghkVA=35
New "Transformer.5940428202-1c" phases=1 buses=[5940428202.3, x_5940428202-c.3, ] conns=[wye, wye, ] kVs=[7.2, 0.24, ] kVAs=[25, 25, ] taps=[1, 1, ] wdg=1 %R=0.38195 RdcOhms=6.732098 wdg=2 %R=0.38195 RdcOhms=0.007480109 %loadloss=0.7639 %noloadloss=0.0851 XHL=2.1 normhkVA=25 emerghkVA=35
New "Transformer.5944828194-1c" phases=1 buses=[5944828194.3, x_5944828194-c.3, ] conns=[wye, wye, ] kVs=[7.2, 0.24, ] kVAs=[25, 25, ] taps=[1, 1, ] wdg=1 %R=0.38195 RdcOhms=6.732098 wdg=2 %R=0.38195 RdcOhms=0.007480109 %loadloss=0.7639 %noloadloss=0.0851 XHL=2.1 normhkVA=25 emerghkVA=35
New "Transformer.g42979-1c" phases=1 buses=[g42979.3, x_g42979-c.3, ] conns=[wye, wye, ] kVs=[7.2, 0.24, ] kVAs=[25, 25, ] taps=[1, 1, ] wdg=1 %R=0.38195 RdcOhms=6.732098 wdg=2 %R=0.38195 RdcOhms=0.007480109 %loadloss=0.7639 %noloadloss=0.0851 XHL=2.1 normhkVA=25 emerghkVA=35
New "Transformer.b61249-1c" phases=1 buses=[b61249.3, x_b61249-c.3, ] conns=[wye, wye, ] kVs=[7.2, 0.24, ] kVAs=[25, 25, ] taps=[1, 1, ] wdg=1 %R=0.38195 RdcOhms=6.732098 wdg=2 %R=0.38195 RdcOhms=0.007480109 %loadloss=0.7639 %noloadloss=0.0851 XHL=2.1 normhkVA=25 emerghkVA=35
New "Transformer.b60870-1c" phases=1 buses=[b60870.3, x_b60870-c.3, ] conns=[wye, wye, ] kVs=[7.2, 0.24, ] kVAs=[25, 25, ] taps=[1, 1, ] wdg=1 %R=0.38195 RdcOhms=6.732098 wdg=2 %R=0.38195 RdcOhms=0.007480109 %loadloss=0.7639 %noloadloss=0.0851 XHL=2.1 normhkVA=25 emerghkVA=35
New "Transformer.b60872-1c" phases=1 buses=[b60872.3, x_b60872-c.3, ] conns=[wye, wye, ] kVs=[7.2, 0.24, ] kVAs=[15, 15, ] taps=[1, 1, ] wdg=1 %R=0.52 RdcOhms=15.27552 wdg=2 %R=0.52 RdcOhms=0.0169728 %loadloss=1.04 %noloadloss=0.34 XHL=1.5 normhkVA=15 emerghkVA=21
New "Transformer.b60873-1c" phases=1 buses=[b60873.3, x_b60873-c.3, ] conns=[wye, wye, ] kVs=[7.2, 0.24, ] kVAs=[25, 25, ] taps=[1, 1, ] wdg=1 %R=0.38195 RdcOhms=6.732098 wdg=2 %R=0.38195 RdcOhms=0.007480109 %loadloss=0.7639 %noloadloss=0.0851 XHL=2.1 normhkVA=25 emerghkVA=35
New "Transformer.b66414-1c" phases=1 buses=[b66414.3, x_b66414-c.3, ] conns=[wye, wye, ] kVs=[7.2, 0.24, ] kVAs=[15, 15, ] taps=[1, 1, ] wdg=1 %R=0.52 RdcOhms=15.27552 wdg=2 %R=0.52 RdcOhms=0.0169728 %loadloss=1.04 %noloadloss=0.34 XHL=1.5 normhkVA=15 emerghkVA=21
New "Transformer.g36578-1c" phases=1 buses=[g36578.3, x_g36578-c.3, ] conns=[wye, wye, ] kVs=[7.2, 0.24, ] kVAs=[25, 25, ] taps=[1, 1, ] wdg=1 %R=0.38195 RdcOhms=6.732098 wdg=2 %R=0.38195 RdcOhms=0.007480109 %loadloss=0.7639 %noloadloss=0.0851 XHL=2.1 normhkVA=25 emerghkVA=35
New "Transformer.g36581-1c" phases=1 buses=[g36581.3, x_g36581-c.3, ] conns=[wye, wye, ] kVs=[7.2, 0.24, ] kVAs=[15, 15, ] taps=[1, 1, ] wdg=1 %R=0.52 RdcOhms=15.27552 wdg=2 %R=0.52 RdcOhms=0.0169728 %loadloss=1.04 %noloadloss=0.34 XHL=1.5 normhkVA=15 emerghkVA=21
New "Transformer.5988528387-1c" phases=1 buses=[5988528387.3, x_5988528387-c.3, ] conns=[wye, wye, ] kVs=[7.2, 0.24, ] kVAs=[25, 25, ] taps=[1, 1, ] wdg=1 %R=0.38195 RdcOhms=6.732098 wdg=2 %R=0.38195 RdcOhms=0.007480109 %loadloss=0.7639 %noloadloss=0.0851 XHL=2.1 normhkVA=25 emerghkVA=35
New "Transformer.g35778-1c" phases=1 buses=[g35778.3, x_g35778-c.3, ] conns=[wye, wye, ] kVs=[7.2, 0.24, ] kVAs=[25, 25, ] taps=[1, 1, ] wdg=1 %R=0.38195 RdcOhms=6.732098 wdg=2 %R=0.38195 RdcOhms=0.007480109 %loadloss=0.7639 %noloadloss=0.0851 XHL=2.1 normhkVA=25 emerghkVA=35
New "Transformer.b59352-1c" phases=1 buses=[b59352.3, x_b59352-c.3, ] conns=[wye, wye, ] kVs=[7.2, 0.24, ] kVAs=[20, 20, ] taps=[1, 1, ] wdg=1 %R=0.52 RdcOhms=11.45664 wdg=2 %R=0.52 RdcOhms=0.0127296 %loadloss=1.04 %noloadloss=0.34 XHL=1.5 normhkVA=20 emerghkVA=28
New "Transformer.b59352-1a" phases=1 buses=[b59352.1, x_b59352-a.1, ] conns=[wye, wye, ] kVs=[7.2, 0.24, ] kVAs=[20, 20, ] taps=[1, 1, ] wdg=1 %R=0.52 RdcOhms=11.45664 wdg=2 %R=0.52 RdcOhms=0.0127296 %loadloss=1.04 %noloadloss=0.34 XHL=1.5 normhkVA=20 emerghkVA=28
New "Transformer.b56446-1a" phases=1 buses=[b56446.1, x_b56446-a.1, ] conns=[wye, wye, ] kVs=[7.2, 0.24, ] kVAs=[15, 15, ] taps=[1, 1, ] wdg=1 %R=0.52 RdcOhms=15.27552 wdg=2 %R=0.52 RdcOhms=0.0169728 %loadloss=1.04 %noloadloss=0.34 XHL=1.5 normhkVA=15 emerghkVA=21
New "Transformer.b35248-1a" phases=1 buses=[b35248.1, x_b35248-a.1, ] conns=[wye, wye, ] kVs=[7.2, 0.24, ] kVAs=[5, 5, ] taps=[1, 1, ] wdg=1 %R=0.511 RdcOhms=45.03341 wdg=2 %R=0.511 RdcOhms=0.05003712 %loadloss=1.022 %noloadloss=0.3221 XHL=1.707 normhkVA=5 emerghkVA=7
New "Transformer.b41906-1a" phases=1 buses=[b41906.1, x_b41906-a.1, ] conns=[wye, wye, ] kVs=[7.2, 0.24, ] kVAs=[10, 10, ] taps=[1, 1, ] wdg=1 %R=0.511 RdcOhms=22.5167 wdg=2 %R=0.511 RdcOhms=0.02501856 %loadloss=1.022 %noloadloss=0.3221 XHL=1.707 normhkVA=10 emerghkVA=14
New "Transformer.b10375-1a" phases=1 buses=[b10375.1, x_b10375-a.1, ] conns=[wye, wye, ] kVs=[7.2, 0.24, ] kVAs=[25, 25, ] taps=[1, 1, ] wdg=1 %R=0.38195 RdcOhms=6.732098 wdg=2 %R=0.38195 RdcOhms=0.007480109 %loadloss=0.7639 %noloadloss=0.0851 XHL=2.1 normhkVA=25 emerghkVA=35
New "Transformer.b41240-1a" phases=1 buses=[b41240.1, x_b41240-a.1, ] conns=[wye, wye, ] kVs=[7.2, 0.24, ] kVAs=[15, 15, ] taps=[1, 1, ] wdg=1 %R=0.52 RdcOhms=15.27552 wdg=2 %R=0.52 RdcOhms=0.0169728 %loadloss=1.04 %noloadloss=0.34 XHL=1.5 normhkVA=15 emerghkVA=21
New "Transformer.b23405-1a" phases=1 buses=[b23405.1, x_b23405-a.1, ] conns=[wye, wye, ] kVs=[7.2, 0.24, ] kVAs=[5, 5, ] taps=[1, 1, ] wdg=1 %R=0.511 RdcOhms=45.03341 wdg=2 %R=0.511 RdcOhms=0.05003712 %loadloss=1.022 %noloadloss=0.3221 XHL=1.707 normhkVA=5 emerghkVA=7
New "Transformer.b23406-1a" phases=1 buses=[b23406.1, x_b23406-a.1, ] conns=[wye, wye, ] kVs=[7.2, 0.24, ] kVAs=[25, 25, ] taps=[1, 1, ] wdg=1 %R=0.38195 RdcOhms=6.732098 wdg=2 %R=0.38195 RdcOhms=0.007480109 %loadloss=0.7639 %noloadloss=0.0851 XHL=2.1 normhkVA=25 emerghkVA=35
New "Transformer.b23416-1a" phases=1 buses=[b23416.1, x_b23416-a.1, ] conns=[wye, wye, ] kVs=[7.2, 0.24, ] kVAs=[10, 10, ] taps=[1, 1, ] wdg=1 %R=0.511 RdcOhms=22.5167 wdg=2 %R=0.511 RdcOhms=0.02501856 %loadloss=1.022 %noloadloss=0.3221 XHL=1.707 normhkVA=10 emerghkVA=14
New "Transformer.5925727418-1c" phases=1 buses=[5925727418.3, x_5925727418-c.3, ] conns=[wye, wye, ] kVs=[7.2, 0.24, ] kVAs=[25, 25, ] taps=[1, 1, ] wdg=1 %R=0.38195 RdcOhms=6.732098 wdg=2 %R=0.38195 RdcOhms=0.007480109 %loadloss=0.7639 %noloadloss=0.0851 XHL=2.1 normhkVA=25 emerghkVA=35
New "Transformer.b5177-1b" phases=1 buses=[b5177.2, x_b5177-b.2, ] conns=[wye, wye, ] kVs=[7.2, 0.24, ] kVAs=[10, 10, ] taps=[1, 1, ] wdg=1 %R=0.511 RdcOhms=22.5167 wdg=2 %R=0.511 RdcOhms=0.02501856 %loadloss=1.022 %noloadloss=0.3221 XHL=1.707 normhkVA=10 emerghkVA=14
New "Transformer.b5171-1b" phases=1 buses=[b5171.2, x_b5171-b.2, ] conns=[wye, wye, ] kVs=[7.2, 0.24, ] kVAs=[25, 25, ] taps=[1, 1, ] wdg=1 %R=0.38195 RdcOhms=6.732098 wdg=2 %R=0.38195 RdcOhms=0.007480109 %loadloss=0.7639 %noloadloss=0.0851 XHL=2.1 normhkVA=25 emerghkVA=35
New "Transformer.b4997-1a" phases=1 buses=[b4997.1, x_b4997-a.1, ] conns=[wye, wye, ] kVs=[7.2, 0.24, ] kVAs=[25, 25, ] taps=[1, 1, ] wdg=1 %R=0.38195 RdcOhms=6.732098 wdg=2 %R=0.38195 RdcOhms=0.007480109 %loadloss=0.7639 %noloadloss=0.0851 XHL=2.1 normhkVA=25 emerghkVA=35
New "Transformer.b4994-1a" phases=1 buses=[b4994.1, x_b4994-a.1, ] conns=[wye, wye, ] kVs=[7.2, 0.24, ] kVAs=[15, 15, ] taps=[1, 1, ] wdg=1 %R=0.52 RdcOhms=15.27552 wdg=2 %R=0.52 RdcOhms=0.0169728 %loadloss=1.04 %noloadloss=0.34 XHL=1.5 normhkVA=15 emerghkVA=21
New "Transformer.b4990-1b" phases=1 buses=[b4990.2, x_b4990-b.2, ] conns=[wye, wye, ] kVs=[7.2, 0.24, ] kVAs=[15, 15, ] taps=[1, 1, ] wdg=1 %R=0.52 RdcOhms=15.27552 wdg=2 %R=0.52 RdcOhms=0.0169728 %loadloss=1.04 %noloadloss=0.34 XHL=1.5 normhkVA=15 emerghkVA=21
New "Transformer.b4987-1b" phases=1 buses=[b4987.2, x_b4987-b.2, ] conns=[wye, wye, ] kVs=[7.2, 0.24, ] kVAs=[25, 25, ] taps=[1, 1, ] wdg=1 %R=0.38195 RdcOhms=6.732098 wdg=2 %R=0.38195 RdcOhms=0.007480109 %loadloss=0.7639 %noloadloss=0.0851 XHL=2.1 normhkVA=25 emerghkVA=35
New "Transformer.b4982-1b" phases=1 buses=[b4982.2, x_b4982-b.2, ] conns=[wye, wye, ] kVs=[7.2, 0.24, ] kVAs=[15, 15, ] taps=[1, 1, ] wdg=1 %R=0.52 RdcOhms=15.27552 wdg=2 %R=0.52 RdcOhms=0.0169728 %loadloss=1.04 %noloadloss=0.34 XHL=1.5 normhkVA=15 emerghkVA=21
New "Transformer.b36166-1a" phases=1 buses=[b36166.1, x_b36166-a.1, ] conns=[wye, wye, ] kVs=[7.2, 0.24, ] kVAs=[15, 15, ] taps=[1, 1, ] wdg=1 %R=0.52 RdcOhms=15.27552 wdg=2 %R=0.52 RdcOhms=0.0169728 %loadloss=1.04 %noloadloss=0.34 XHL=1.5 normhkVA=15 emerghkVA=21
New "Transformer.b4974-1c" phases=1 buses=[b4974.3, x_b4974-c.3, ] conns=[wye, wye, ] kVs=[7.2, 0.24, ] kVAs=[25, 25, ] taps=[1, 1, ] wdg=1 %R=0.38195 RdcOhms=6.732098 wdg=2 %R=0.38195 RdcOhms=0.007480109 %loadloss=0.7639 %noloadloss=0.0851 XHL=2.1 normhkVA=25 emerghkVA=35
New "Transformer.b4972-1c" phases=1 buses=[b4972.3, x_b4972-c.3, ] conns=[wye, wye, ] kVs=[7.2, 0.24, ] kVAs=[25, 25, ] taps=[1, 1, ] wdg=1 %R=0.38195 RdcOhms=6.732098 wdg=2 %R=0.38195 RdcOhms=0.007480109 %loadloss=0.7639 %noloadloss=0.0851 XHL=2.1 normhkVA=25 emerghkVA=35
New "Transformer.b4970-1a" phases=1 buses=[b4970.1, x_b4970-a.1, ] conns=[wye, wye, ] kVs=[7.2, 0.24, ] kVAs=[15, 15, ] taps=[1, 1, ] wdg=1 %R=0.52 RdcOhms=15.27552 wdg=2 %R=0.52 RdcOhms=0.0169728 %loadloss=1.04 %noloadloss=0.34 XHL=1.5 normhkVA=15 emerghkVA=21
New "Transformer.b4968-1b" phases=1 buses=[b4968.2, x_b4968-b.2, ] conns=[wye, wye, ] kVs=[7.2, 0.24, ] kVAs=[10, 10, ] taps=[1, 1, ] wdg=1 %R=0.511 RdcOhms=22.5167 wdg=2 %R=0.511 RdcOhms=0.02501856 %loadloss=1.022 %noloadloss=0.3221 XHL=1.707 normhkVA=10 emerghkVA=14
New "Transformer.b4965-1b" phases=1 buses=[b4965.2, x_b4965-b.2, ] conns=[wye, wye, ] kVs=[7.2, 0.24, ] kVAs=[50, 50, ] taps=[1, 1, ] wdg=1 %R=0.369 RdcOhms=3.251923 wdg=2 %R=0.369 RdcOhms=0.003613248 %loadloss=0.738 %noloadloss=0.1987 XHL=1.7532 normhkVA=50 emerghkVA=70
New "Transformer.b52452-1a" phases=1 buses=[b52452.1, x_b52452-a.1, ] conns=[wye, wye, ] kVs=[7.2, 0.24, ] kVAs=[10, 10, ] taps=[1, 1, ] wdg=1 %R=0.511 RdcOhms=22.5167 wdg=2 %R=0.511 RdcOhms=0.02501856 %loadloss=1.022 %noloadloss=0.3221 XHL=1.707 normhkVA=10 emerghkVA=14
New "Transformer.b55975-1a" phases=1 buses=[b55975.1, x_b55975-a.1, ] conns=[wye, wye, ] kVs=[7.2, 0.24, ] kVAs=[15, 15, ] taps=[1, 1, ] wdg=1 %R=0.52 RdcOhms=15.27552 wdg=2 %R=0.52 RdcOhms=0.0169728 %loadloss=1.04 %noloadloss=0.34 XHL=1.5 normhkVA=15 emerghkVA=21
New "Transformer.b55976-1a" phases=1 buses=[b55976.1, x_b55976-a.1, ] conns=[wye, wye, ] kVs=[7.2, 0.24, ] kVAs=[15, 15, ] taps=[1, 1, ] wdg=1 %R=0.52 RdcOhms=15.27552 wdg=2 %R=0.52 RdcOhms=0.0169728 %loadloss=1.04 %noloadloss=0.34 XHL=1.5 normhkVA=15 emerghkVA=21
New "Transformer.g36931-1a" phases=1 buses=[g36931.1, x_g36931-a.1, ] conns=[wye, wye, ] kVs=[7.2, 0.24, ] kVAs=[15, 15, ] taps=[1, 1, ] wdg=1 %R=0.52 RdcOhms=15.27552 wdg=2 %R=0.52 RdcOhms=0.0169728 %loadloss=1.04 %noloadloss=0.34 XHL=1.5 normhkVA=15 emerghkVA=21
New "Transformer.5906427768-1a" phases=1 buses=[5906427768.1, x_5906427768-a.1, ] conns=[wye, wye, ] kVs=[7.2, 0.24, ] kVAs=[25, 25, ] taps=[1, 1, ] wdg=1 %R=0.38195 RdcOhms=6.732098 wdg=2 %R=0.38195 RdcOhms=0.007480109 %loadloss=0.7639 %noloadloss=0.0851 XHL=2.1 normhkVA=25 emerghkVA=35
New "Transformer.b59816-1a" phases=1 buses=[b59816.1, x_b59816-a.1, ] conns=[wye, wye, ] kVs=[7.2, 0.24, ] kVAs=[25, 25, ] taps=[1, 1, ] wdg=1 %R=0.38195 RdcOhms=6.732098 wdg=2 %R=0.38195 RdcOhms=0.007480109 %loadloss=0.7639 %noloadloss=0.0851 XHL=2.1 normhkVA=25 emerghkVA=35
New "Transformer.b4964-1b" phases=1 buses=[b4964.2, x_b4964-b.2, ] conns=[wye, wye, ] kVs=[7.2, 0.24, ] kVAs=[15, 15, ] taps=[1, 1, ] wdg=1 %R=0.52 RdcOhms=15.27552 wdg=2 %R=0.52 RdcOhms=0.0169728 %loadloss=1.04 %noloadloss=0.34 XHL=1.5 normhkVA=15 emerghkVA=21
New "Transformer.b4963-1c" phases=1 buses=[b4963.3, x_b4963-c.3, ] conns=[wye, wye, ] kVs=[7.2, 0.24, ] kVAs=[15, 15, ] taps=[1, 1, ] wdg=1 %R=0.52 RdcOhms=15.27552 wdg=2 %R=0.52 RdcOhms=0.0169728 %loadloss=1.04 %noloadloss=0.34 XHL=1.5 normhkVA=15 emerghkVA=21
New "Transformer.5880927872-1c" phases=1 buses=[5880927872.3, x_5880927872-c.3, ] conns=[wye, wye, ] kVs=[7.2, 0.24, ] kVAs=[15, 15, ] taps=[1, 1, ] wdg=1 %R=0.52 RdcOhms=15.27552 wdg=2 %R=0.52 RdcOhms=0.0169728 %loadloss=1.04 %noloadloss=0.34 XHL=1.5 normhkVA=15 emerghkVA=21
New "Transformer.b59172-1b" phases=1 buses=[b59172.2, x_b59172-b.2, ] conns=[wye, wye, ] kVs=[7.2, 0.24, ] kVAs=[25, 25, ] taps=[1, 1, ] wdg=1 %R=0.38195 RdcOhms=6.732098 wdg=2 %R=0.38195 RdcOhms=0.007480109 %loadloss=0.7639 %noloadloss=0.0851 XHL=2.1 normhkVA=25 emerghkVA=35
New "Transformer.b4931-1b" phases=1 buses=[b4931.2, x_b4931-b.2, ] conns=[wye, wye, ] kVs=[7.2, 0.24, ] kVAs=[10, 10, ] taps=[1, 1, ] wdg=1 %R=0.511 RdcOhms=22.5167 wdg=2 %R=0.511 RdcOhms=0.02501856 %loadloss=1.022 %noloadloss=0.3221 XHL=1.707 normhkVA=10 emerghkVA=14
New "Transformer.b4910-1c" phases=1 buses=[b4910.3, x_b4910-c.3, ] conns=[wye, wye, ] kVs=[7.2, 0.24, ] kVAs=[15, 15, ] taps=[1, 1, ] wdg=1 %R=0.52 RdcOhms=15.27552 wdg=2 %R=0.52 RdcOhms=0.0169728 %loadloss=1.04 %noloadloss=0.34 XHL=1.5 normhkVA=15 emerghkVA=21
New "Transformer.b4904-1b" phases=1 buses=[b4904.2, x_b4904-b.2, ] conns=[wye, wye, ] kVs=[7.2, 0.24, ] kVAs=[25, 25, ] taps=[1, 1, ] wdg=1 %R=0.38195 RdcOhms=6.732098 wdg=2 %R=0.38195 RdcOhms=0.007480109 %loadloss=0.7639 %noloadloss=0.0851 XHL=2.1 normhkVA=25 emerghkVA=35
New "Transformer.b61309-1a" phases=1 buses=[b61309.1, x_b61309-a.1, ] conns=[wye, wye, ] kVs=[7.2, 0.24, ] kVAs=[15, 15, ] taps=[1, 1, ] wdg=1 %R=0.52 RdcOhms=15.27552 wdg=2 %R=0.52 RdcOhms=0.0169728 %loadloss=1.04 %noloadloss=0.34 XHL=1.5 normhkVA=15 emerghkVA=21
New "Transformer.b4900-1a" phases=1 buses=[b4900.1, x_b4900-a.1, ] conns=[wye, wye, ] kVs=[7.2, 0.24, ] kVAs=[15, 15, ] taps=[1, 1, ] wdg=1 %R=0.52 RdcOhms=15.27552 wdg=2 %R=0.52 RdcOhms=0.0169728 %loadloss=1.04 %noloadloss=0.34 XHL=1.5 normhkVA=15 emerghkVA=21
New "Transformer.b4896-1c" phases=1 buses=[b4896.3, x_b4896-c.3, ] conns=[wye, wye, ] kVs=[7.2, 0.24, ] kVAs=[15, 15, ] taps=[1, 1, ] wdg=1 %R=0.52 RdcOhms=15.27552 wdg=2 %R=0.52 RdcOhms=0.0169728 %loadloss=1.04 %noloadloss=0.34 XHL=1.5 normhkVA=15 emerghkVA=21
New "Transformer.b4891-1c" phases=1 buses=[b4891.3, x_b4891-c.3, ] conns=[wye, wye, ] kVs=[7.2, 0.24, ] kVAs=[25, 25, ] taps=[1, 1, ] wdg=1 %R=0.38195 RdcOhms=6.732098 wdg=2 %R=0.38195 RdcOhms=0.007480109 %loadloss=0.7639 %noloadloss=0.0851 XHL=2.1 normhkVA=25 emerghkVA=35
New "Transformer.b4890-1c" phases=1 buses=[b4890.3, x_b4890-c.3, ] conns=[wye, wye, ] kVs=[7.2, 0.24, ] kVAs=[15, 15, ] taps=[1, 1, ] wdg=1 %R=0.52 RdcOhms=15.27552 wdg=2 %R=0.52 RdcOhms=0.0169728 %loadloss=1.04 %noloadloss=0.34 XHL=1.5 normhkVA=15 emerghkVA=21
New "Transformer.b4890-1b" phases=1 buses=[b4890.2, x_b4890-b.2, ] conns=[wye, wye, ] kVs=[7.2, 0.24, ] kVAs=[15, 15, ] taps=[1, 1, ] wdg=1 %R=0.52 RdcOhms=15.27552 wdg=2 %R=0.52 RdcOhms=0.0169728 %loadloss=1.04 %noloadloss=0.34 XHL=1.5 normhkVA=15 emerghkVA=21
New "Transformer.b4890-1a" phases=1 buses=[b4890.1, x_b4890-a.1, ] conns=[wye, wye, ] kVs=[7.2, 0.24, ] kVAs=[15, 15, ] taps=[1, 1, ] wdg=1 %R=0.52 RdcOhms=15.27552 wdg=2 %R=0.52 RdcOhms=0.0169728 %loadloss=1.04 %noloadloss=0.34 XHL=1.5 normhkVA=15 emerghkVA=21
New "Transformer.b4889-1b" phases=1 buses=[b4889.2, x_b4889-b.2, ] conns=[wye, wye, ] kVs=[7.2, 0.24, ] kVAs=[15, 15, ] taps=[1, 1, ] wdg=1 %R=0.52 RdcOhms=15.27552 wdg=2 %R=0.52 RdcOhms=0.0169728 %loadloss=1.04 %noloadloss=0.34 XHL=1.5 normhkVA=15 emerghkVA=21
New "Transformer.b4885-1c" phases=1 buses=[b4885.3, x_b4885-c.3, ] conns=[wye, wye, ] kVs=[7.2, 0.24, ] kVAs=[25, 25, ] taps=[1, 1, ] wdg=1 %R=0.38195 RdcOhms=6.732098 wdg=2 %R=0.38195 RdcOhms=0.007480109 %loadloss=0.7639 %noloadloss=0.0851 XHL=2.1 normhkVA=25 emerghkVA=35
New "Transformer.b4881-1c" phases=1 buses=[b4881.3, x_b4881-c.3, ] conns=[wye, wye, ] kVs=[7.2, 0.24, ] kVAs=[15, 15, ] taps=[1, 1, ] wdg=1 %R=0.52 RdcOhms=15.27552 wdg=2 %R=0.52 RdcOhms=0.0169728 %loadloss=1.04 %noloadloss=0.34 XHL=1.5 normhkVA=15 emerghkVA=21
New "Transformer.b4880-1c" phases=1 buses=[b4880.3, x_b4880-c.3, ] conns=[wye, wye, ] kVs=[7.2, 0.24, ] kVAs=[25, 25, ] taps=[1, 1, ] wdg=1 %R=0.38195 RdcOhms=6.732098 wdg=2 %R=0.38195 RdcOhms=0.007480109 %loadloss=0.7639 %noloadloss=0.0851 XHL=2.1 normhkVA=25 emerghkVA=35
New "Transformer.b4878-1b" phases=1 buses=[b4878.2, x_b4878-b.2, ] conns=[wye, wye, ] kVs=[7.2, 0.24, ] kVAs=[15, 15, ] taps=[1, 1, ] wdg=1 %R=0.52 RdcOhms=15.27552 wdg=2 %R=0.52 RdcOhms=0.0169728 %loadloss=1.04 %noloadloss=0.34 XHL=1.5 normhkVA=15 emerghkVA=21
New "Transformer.b4878-1a" phases=1 buses=[b4878.1, x_b4878-a.1, ] conns=[wye, wye, ] kVs=[7.2, 0.24, ] kVAs=[15, 15, ] taps=[1, 1, ] wdg=1 %R=0.52 RdcOhms=15.27552 wdg=2 %R=0.52 RdcOhms=0.0169728 %loadloss=1.04 %noloadloss=0.34 XHL=1.5 normhkVA=15 emerghkVA=21
New "Transformer.b4878-1c" phases=1 buses=[b4878.3, x_b4878-c.3, ] conns=[wye, wye, ] kVs=[7.2, 0.24, ] kVAs=[15, 15, ] taps=[1, 1, ] wdg=1 %R=0.52 RdcOhms=15.27552 wdg=2 %R=0.52 RdcOhms=0.0169728 %loadloss=1.04 %noloadloss=0.34 XHL=1.5 normhkVA=15 emerghkVA=21
New "Transformer.b4873-1b" phases=1 buses=[b4873.2, x_b4873-b.2, ] conns=[wye, wye, ] kVs=[7.2, 0.24, ] kVAs=[25, 25, ] taps=[1, 1, ] wdg=1 %R=0.38195 RdcOhms=6.732098 wdg=2 %R=0.38195 RdcOhms=0.007480109 %loadloss=0.7639 %noloadloss=0.0851 XHL=2.1 normhkVA=25 emerghkVA=35
New "Transformer.b4863-1b" phases=1 buses=[b4863.2, x_b4863-b.2, ] conns=[wye, wye, ] kVs=[7.2, 0.24, ] kVAs=[50, 50, ] taps=[1, 1, ] wdg=1 %R=0.369 RdcOhms=3.251923 wdg=2 %R=0.369 RdcOhms=0.003613248 %loadloss=0.738 %noloadloss=0.1987 XHL=1.7532 normhkVA=50 emerghkVA=70
New "Transformer.b4861-1b" phases=1 buses=[b4861.2, x_b4861-b.2, ] conns=[wye, wye, ] kVs=[7.2, 0.24, ] kVAs=[38, 38, ] taps=[1, 1, ] wdg=1 %R=0.36105 RdcOhms=4.18666 wdg=2 %R=0.36105 RdcOhms=0.004651844 %loadloss=0.7221 %noloadloss=0.2423 XHL=1.5158 normhkVA=37.5 emerghkVA=53.2
New "Transformer.b4859-1c" phases=1 buses=[b4859.3, x_b4859-c.3, ] conns=[wye, wye, ] kVs=[7.2, 0.24, ] kVAs=[25, 25, ] taps=[1, 1, ] wdg=1 %R=0.38195 RdcOhms=6.732098 wdg=2 %R=0.38195 RdcOhms=0.007480109 %loadloss=0.7639 %noloadloss=0.0851 XHL=2.1 normhkVA=25 emerghkVA=35
New "Transformer.b4859-1b" phases=1 buses=[b4859.2, x_b4859-b.2, ] conns=[wye, wye, ] kVs=[7.2, 0.24, ] kVAs=[25, 25, ] taps=[1, 1, ] wdg=1 %R=0.38195 RdcOhms=6.732098 wdg=2 %R=0.38195 RdcOhms=0.007480109 %loadloss=0.7639 %noloadloss=0.0851 XHL=2.1 normhkVA=25 emerghkVA=35
New "Transformer.b4859-1a" phases=1 buses=[b4859.1, x_b4859-a.1, ] conns=[wye, wye, ] kVs=[7.2, 0.24, ] kVAs=[25, 25, ] taps=[1, 1, ] wdg=1 %R=0.38195 RdcOhms=6.732098 wdg=2 %R=0.38195 RdcOhms=0.007480109 %loadloss=0.7639 %noloadloss=0.0851 XHL=2.1 normhkVA=25 emerghkVA=35
New "Transformer.b4858-1b" phases=1 buses=[b4858.2, x_b4858-b.2, ] conns=[wye, wye, ] kVs=[7.2, 0.24, ] kVAs=[38, 38, ] taps=[1, 1, ] wdg=1 %R=0.36105 RdcOhms=4.18666 wdg=2 %R=0.36105 RdcOhms=0.004651844 %loadloss=0.7221 %noloadloss=0.2423 XHL=1.5158 normhkVA=37.5 emerghkVA=53.2
New "Transformer.b19034-1c" phases=1 buses=[b19034.3, x_b19034-c.3, ] conns=[wye, wye, ] kVs=[7.2, 0.24, ] kVAs=[15, 15, ] taps=[1, 1, ] wdg=1 %R=0.52 RdcOhms=15.27552 wdg=2 %R=0.52 RdcOhms=0.0169728 %loadloss=1.04 %noloadloss=0.34 XHL=1.5 normhkVA=15 emerghkVA=21
New "Transformer.b19034-1b" phases=1 buses=[b19034.2, x_b19034-b.2, ] conns=[wye, wye, ] kVs=[7.2, 0.24, ] kVAs=[15, 15, ] taps=[1, 1, ] wdg=1 %R=0.52 RdcOhms=15.27552 wdg=2 %R=0.52 RdcOhms=0.0169728 %loadloss=1.04 %noloadloss=0.34 XHL=1.5 normhkVA=15 emerghkVA=21
New "Transformer.b19034-1a" phases=1 buses=[b19034.1, x_b19034-a.1, ] conns=[wye, wye, ] kVs=[7.2, 0.24, ] kVAs=[15, 15, ] taps=[1, 1, ] wdg=1 %R=0.52 RdcOhms=15.27552 wdg=2 %R=0.52 RdcOhms=0.0169728 %loadloss=1.04 %noloadloss=0.34 XHL=1.5 normhkVA=15 emerghkVA=21
New "Transformer.b4676-1a" phases=1 buses=[b4676.1, x_b4676-a.1, ] conns=[wye, wye, ] kVs=[7.2, 0.24, ] kVAs=[38, 38, ] taps=[1, 1, ] wdg=1 %R=0.36105 RdcOhms=4.18666 wdg=2 %R=0.36105 RdcOhms=0.004651844 %loadloss=0.7221 %noloadloss=0.2423 XHL=1.5158 normhkVA=37.5 emerghkVA=53.2
New "Transformer.b4673-1a" phases=1 buses=[b4673.1, x_b4673-a.1, ] conns=[wye, wye, ] kVs=[7.2, 0.24, ] kVAs=[25, 25, ] taps=[1, 1, ] wdg=1 %R=0.38195 RdcOhms=6.732098 wdg=2 %R=0.38195 RdcOhms=0.007480109 %loadloss=0.7639 %noloadloss=0.0851 XHL=2.1 normhkVA=25 emerghkVA=35
New "Transformer.b4668-1a" phases=1 buses=[b4668.1, x_b4668-a.1, ] conns=[wye, wye, ] kVs=[7.2, 0.24, ] kVAs=[38, 38, ] taps=[1, 1, ] wdg=1 %R=0.36105 RdcOhms=4.18666 wdg=2 %R=0.36105 RdcOhms=0.004651844 %loadloss=0.7221 %noloadloss=0.2423 XHL=1.5158 normhkVA=37.5 emerghkVA=53.2
New "Transformer.b19039-1b" phases=1 buses=[b19039.2, x_b19039-b.2, ] conns=[wye, wye, ] kVs=[7.2, 0.24, ] kVAs=[25, 25, ] taps=[1, 1, ] wdg=1 %R=0.38195 RdcOhms=6.732098 wdg=2 %R=0.38195 RdcOhms=0.007480109 %loadloss=0.7639 %noloadloss=0.0851 XHL=2.1 normhkVA=25 emerghkVA=35
New "Transformer.b19040-1c" phases=1 buses=[b19040.3, x_b19040-c.3, ] conns=[wye, wye, ] kVs=[7.2, 0.24, ] kVAs=[25, 25, ] taps=[1, 1, ] wdg=1 %R=0.38195 RdcOhms=6.732098 wdg=2 %R=0.38195 RdcOhms=0.007480109 %loadloss=0.7639 %noloadloss=0.0851 XHL=2.1 normhkVA=25 emerghkVA=35
New "Transformer.b41084-1c" phases=1 buses=[b41084.3, x_b41084-c.3, ] conns=[wye, wye, ] kVs=[7.2, 0.24, ] kVAs=[12, 12, ] taps=[1, 1, ] wdg=1 %R=0.511 RdcOhms=18.76392 wdg=2 %R=0.511 RdcOhms=0.0208488 %loadloss=1.022 %noloadloss=0.3221 XHL=1.707 normhkVA=12.5 emerghkVA=16.8
New "Transformer.b41084-1b" phases=1 buses=[b41084.2, x_b41084-b.2, ] conns=[wye, wye, ] kVs=[7.2, 0.24, ] kVAs=[12, 12, ] taps=[1, 1, ] wdg=1 %R=0.511 RdcOhms=18.76392 wdg=2 %R=0.511 RdcOhms=0.0208488 %loadloss=1.022 %noloadloss=0.3221 XHL=1.707 normhkVA=12.5 emerghkVA=16.8
New "Transformer.b41086-1c" phases=1 buses=[b41086.3, x_b41086-c.3, ] conns=[wye, wye, ] kVs=[7.2, 0.24, ] kVAs=[10, 10, ] taps=[1, 1, ] wdg=1 %R=0.511 RdcOhms=22.5167 wdg=2 %R=0.511 RdcOhms=0.02501856 %loadloss=1.022 %noloadloss=0.3221 XHL=1.707 normhkVA=10 emerghkVA=14
New "Transformer.b41086-1b" phases=1 buses=[b41086.2, x_b41086-b.2, ] conns=[wye, wye, ] kVs=[7.2, 0.24, ] kVAs=[10, 10, ] taps=[1, 1, ] wdg=1 %R=0.511 RdcOhms=22.5167 wdg=2 %R=0.511 RdcOhms=0.02501856 %loadloss=1.022 %noloadloss=0.3221 XHL=1.707 normhkVA=10 emerghkVA=14
New "Transformer.b41085-1c" phases=1 buses=[b41085.3, x_b41085-c.3, ] conns=[wye, wye, ] kVs=[7.2, 0.24, ] kVAs=[25, 25, ] taps=[1, 1, ] wdg=1 %R=0.38195 RdcOhms=6.732098 wdg=2 %R=0.38195 RdcOhms=0.007480109 %loadloss=0.7639 %noloadloss=0.0851 XHL=2.1 normhkVA=25 emerghkVA=35
New "Transformer.b41085-1b" phases=1 buses=[b41085.2, x_b41085-b.2, ] conns=[wye, wye, ] kVs=[7.2, 0.24, ] kVAs=[25, 25, ] taps=[1, 1, ] wdg=1 %R=0.38195 RdcOhms=6.732098 wdg=2 %R=0.38195 RdcOhms=0.007480109 %loadloss=0.7639 %noloadloss=0.0851 XHL=2.1 normhkVA=25 emerghkVA=35
New "Transformer.b58809-1c" phases=1 buses=[b58809.3, x_b58809-c.3, ] conns=[wye, wye, ] kVs=[7.2, 0.24, ] kVAs=[15, 15, ] taps=[1, 1, ] wdg=1 %R=0.52 RdcOhms=15.27552 wdg=2 %R=0.52 RdcOhms=0.0169728 %loadloss=1.04 %noloadloss=0.34 XHL=1.5 normhkVA=15 emerghkVA=21
New "Transformer.b47668-1c" phases=1 buses=[b47668.3, x_b47668-c.3, ] conns=[wye, wye, ] kVs=[7.2, 0.24, ] kVAs=[15, 15, ] taps=[1, 1, ] wdg=1 %R=0.52 RdcOhms=15.27552 wdg=2 %R=0.52 RdcOhms=0.0169728 %loadloss=1.04 %noloadloss=0.34 XHL=1.5 normhkVA=15 emerghkVA=21
New "Transformer.b47668-1b" phases=1 buses=[b47668.2, x_b47668-b.2, ] conns=[wye, wye, ] kVs=[7.2, 0.24, ] kVAs=[15, 15, ] taps=[1, 1, ] wdg=1 %R=0.52 RdcOhms=15.27552 wdg=2 %R=0.52 RdcOhms=0.0169728 %loadloss=1.04 %noloadloss=0.34 XHL=1.5 normhkVA=15 emerghkVA=21
New "Transformer.b47668-1a" phases=1 buses=[b47668.1, x_b47668-a.1, ] conns=[wye, wye, ] kVs=[7.2, 0.24, ] kVAs=[15, 15, ] taps=[1, 1, ] wdg=1 %R=0.52 RdcOhms=15.27552 wdg=2 %R=0.52 RdcOhms=0.0169728 %loadloss=1.04 %noloadloss=0.34 XHL=1.5 normhkVA=15 emerghkVA=21
New "Transformer.g36733-1b" phases=1 buses=[g36733.2, x_g36733-b.2, ] conns=[wye, wye, ] kVs=[7.2, 0.24, ] kVAs=[15, 15, ] taps=[1, 1, ] wdg=1 %R=0.52 RdcOhms=15.27552 wdg=2 %R=0.52 RdcOhms=0.0169728 %loadloss=1.04 %noloadloss=0.34 XHL=1.5 normhkVA=15 emerghkVA=21
New "Transformer.b4811-1b" phases=1 buses=[b4811.2, x_b4811-b.2, ] conns=[wye, wye, ] kVs=[7.2, 0.24, ] kVAs=[32, 32, ] taps=[1, 1, ] wdg=1 %R=0.38195 RdcOhms=5.259452 wdg=2 %R=0.38195 RdcOhms=0.005843835 %loadloss=0.7639 %noloadloss=0.0851 XHL=2.1 normhkVA=32.5 emerghkVA=44.8
New "Transformer.b4811-1a" phases=1 buses=[b4811.1, x_b4811-a.1, ] conns=[wye, wye, ] kVs=[7.2, 0.24, ] kVAs=[32, 32, ] taps=[1, 1, ] wdg=1 %R=0.38195 RdcOhms=5.259452 wdg=2 %R=0.38195 RdcOhms=0.005843835 %loadloss=0.7639 %noloadloss=0.0851 XHL=2.1 normhkVA=32.5 emerghkVA=44.8
New "Transformer.b4815-1c" phases=1 buses=[b4815.3, x_b4815-c.3, ] conns=[wye, wye, ] kVs=[7.2, 0.24, ] kVAs=[25, 25, ] taps=[1, 1, ] wdg=1 %R=0.38195 RdcOhms=6.732098 wdg=2 %R=0.38195 RdcOhms=0.007480109 %loadloss=0.7639 %noloadloss=0.0851 XHL=2.1 normhkVA=25 emerghkVA=35
New "Transformer.5840028380-1c" phases=1 buses=[5840028380.3, x_5840028380-c.3, ] conns=[wye, wye, ] kVs=[7.2, 0.24, ] kVAs=[15, 15, ] taps=[1, 1, ] wdg=1 %R=0.52 RdcOhms=15.27552 wdg=2 %R=0.52 RdcOhms=0.0169728 %loadloss=1.04 %noloadloss=0.34 XHL=1.5 normhkVA=15 emerghkVA=21
New "Transformer.b4817-1c" phases=1 buses=[b4817.3, x_b4817-c.3, ] conns=[wye, wye, ] kVs=[7.2, 0.24, ] kVAs=[25, 25, ] taps=[1, 1, ] wdg=1 %R=0.38195 RdcOhms=6.732098 wdg=2 %R=0.38195 RdcOhms=0.007480109 %loadloss=0.7639 %noloadloss=0.0851 XHL=2.1 normhkVA=25 emerghkVA=35
New "Transformer.b4819-1c" phases=1 buses=[b4819.3, x_b4819-c.3, ] conns=[wye, wye, ] kVs=[7.2, 0.24, ] kVAs=[25, 25, ] taps=[1, 1, ] wdg=1 %R=0.38195 RdcOhms=6.732098 wdg=2 %R=0.38195 RdcOhms=0.007480109 %loadloss=0.7639 %noloadloss=0.0851 XHL=2.1 normhkVA=25 emerghkVA=35
New "Transformer.b4821-1b" phases=1 buses=[b4821.2, x_b4821-b.2, ] conns=[wye, wye, ] kVs=[7.2, 0.24, ] kVAs=[25, 25, ] taps=[1, 1, ] wdg=1 %R=0.38195 RdcOhms=6.732098 wdg=2 %R=0.38195 RdcOhms=0.007480109 %loadloss=0.7639 %noloadloss=0.0851 XHL=2.1 normhkVA=25 emerghkVA=35
New "Transformer.b4823-1b" phases=1 buses=[b4823.2, x_b4823-b.2, ] conns=[wye, wye, ] kVs=[7.2, 0.24, ] kVAs=[25, 25, ] taps=[1, 1, ] wdg=1 %R=0.38195 RdcOhms=6.732098 wdg=2 %R=0.38195 RdcOhms=0.007480109 %loadloss=0.7639 %noloadloss=0.0851 XHL=2.1 normhkVA=25 emerghkVA=35
New "Transformer.b4825-1b" phases=1 buses=[b4825.2, x_b4825-b.2, ] conns=[wye, wye, ] kVs=[7.2, 0.24, ] kVAs=[25, 25, ] taps=[1, 1, ] wdg=1 %R=0.38195 RdcOhms=6.732098 wdg=2 %R=0.38195 RdcOhms=0.007480109 %loadloss=0.7639 %noloadloss=0.0851 XHL=2.1 normhkVA=25 emerghkVA=35
New "Transformer.b4826-1c" phases=1 buses=[b4826.3, x_b4826-c.3, ] conns=[wye, wye, ] kVs=[7.2, 0.24, ] kVAs=[15, 15, ] taps=[1, 1, ] wdg=1 %R=0.52 RdcOhms=15.27552 wdg=2 %R=0.52 RdcOhms=0.0169728 %loadloss=1.04 %noloadloss=0.34 XHL=1.5 normhkVA=15 emerghkVA=21
New "Transformer.b4826-1b" phases=1 buses=[b4826.2, x_b4826-b.2, ] conns=[wye, wye, ] kVs=[7.2, 0.24, ] kVAs=[15, 15, ] taps=[1, 1, ] wdg=1 %R=0.52 RdcOhms=15.27552 wdg=2 %R=0.52 RdcOhms=0.0169728 %loadloss=1.04 %noloadloss=0.34 XHL=1.5 normhkVA=15 emerghkVA=21
New "Transformer.b4828-1a" phases=1 buses=[b4828.1, x_b4828-a.1, ] conns=[wye, wye, ] kVs=[7.2, 0.24, ] kVAs=[5, 5, ] taps=[1, 1, ] wdg=1 %R=0.511 RdcOhms=45.03341 wdg=2 %R=0.511 RdcOhms=0.05003712 %loadloss=1.022 %noloadloss=0.3221 XHL=1.707 normhkVA=5 emerghkVA=7
New "Transformer.existingsite2" phases=3 windings=2 buses=[b4832, b4832_sec, ] conns=[wye, wye, ] kVs=[12.47, 0.416, ] kVAs=[250, 250, ] %loadloss=0.7 %noloadloss=0.157 XHL=1.7 normhkVA=275 emerghkVA=350
New "Transformer.b4832-1b" phases=1 buses=[b4832.2, x_b4832-b.2, ] conns=[wye, wye, ] kVs=[7.2, 0.24, ] kVAs=[15, 15, ] taps=[1, 1, ] wdg=1 %R=0.52 RdcOhms=15.27552 wdg=2 %R=0.52 RdcOhms=0.0169728 %loadloss=1.04 %noloadloss=0.34 XHL=1.5 normhkVA=15 emerghkVA=21
New "Transformer.b4832-1a" phases=1 buses=[b4832.1, x_b4832-a.1, ] conns=[wye, wye, ] kVs=[7.2, 0.24, ] kVAs=[15, 15, ] taps=[1, 1, ] wdg=1 %R=0.52 RdcOhms=15.27552 wdg=2 %R=0.52 RdcOhms=0.0169728 %loadloss=1.04 %noloadloss=0.34 XHL=1.5 normhkVA=15 emerghkVA=21
New "Transformer.b14335-1c" phases=1 buses=[b14335.3, x_b14335-c.3, ] conns=[wye, wye, ] kVs=[7.2, 0.24, ] kVAs=[15, 15, ] taps=[1, 1, ] wdg=1 %R=0.52 RdcOhms=15.27552 wdg=2 %R=0.52 RdcOhms=0.0169728 %loadloss=1.04 %noloadloss=0.34 XHL=1.5 normhkVA=15 emerghkVA=21
New "Transformer.b14339-1c" phases=1 buses=[b14339.3, x_b14339-c.3, ] conns=[wye, wye, ] kVs=[7.2, 0.24, ] kVAs=[15, 15, ] taps=[1, 1, ] wdg=1 %R=0.52 RdcOhms=15.27552 wdg=2 %R=0.52 RdcOhms=0.0169728 %loadloss=1.04 %noloadloss=0.34 XHL=1.5 normhkVA=15 emerghkVA=21
New "Transformer.b14440-1c" phases=1 buses=[b14440.3, x_b14440-c.3, ] conns=[wye, wye, ] kVs=[7.2, 0.24, ] kVAs=[15, 15, ] taps=[1, 1, ] wdg=1 %R=0.52 RdcOhms=15.27552 wdg=2 %R=0.52 RdcOhms=0.0169728 %loadloss=1.04 %noloadloss=0.34 XHL=1.5 normhkVA=15 emerghkVA=21
New "Transformer.b18828-1b" phases=1 buses=[b18828.2, x_b18828-b.2, ] conns=[wye, wye, ] kVs=[7.2, 0.24, ] kVAs=[15, 15, ] taps=[1, 1, ] wdg=1 %R=0.52 RdcOhms=15.27552 wdg=2 %R=0.52 RdcOhms=0.0169728 %loadloss=1.04 %noloadloss=0.34 XHL=1.5 normhkVA=15 emerghkVA=21
New "Transformer.b18828-1a" phases=1 buses=[b18828.1, x_b18828-a.1, ] conns=[wye, wye, ] kVs=[7.2, 0.24, ] kVAs=[15, 15, ] taps=[1, 1, ] wdg=1 %R=0.52 RdcOhms=15.27552 wdg=2 %R=0.52 RdcOhms=0.0169728 %loadloss=1.04 %noloadloss=0.34 XHL=1.5 normhkVA=15 emerghkVA=21
New "Transformer.b18830-1a" phases=1 buses=[b18830.1, x_b18830-a.1, ] conns=[wye, wye, ] kVs=[7.2, 0.24, ] kVAs=[15, 15, ] taps=[1, 1, ] wdg=1 %R=0.52 RdcOhms=15.27552 wdg=2 %R=0.52 RdcOhms=0.0169728 %loadloss=1.04 %noloadloss=0.34 XHL=1.5 normhkVA=15 emerghkVA=21
New "Transformer.b18835-1a" phases=1 buses=[b18835.1, x_b18835-a.1, ] conns=[wye, wye, ] kVs=[7.2, 0.24, ] kVAs=[15, 15, ] taps=[1, 1, ] wdg=1 %R=0.52 RdcOhms=15.27552 wdg=2 %R=0.52 RdcOhms=0.0169728 %loadloss=1.04 %noloadloss=0.34 XHL=1.5 normhkVA=15 emerghkVA=21
New "Transformer.b63369-1c" phases=1 buses=[b63369.3, x_b63369-c.3, ] conns=[wye, wye, ] kVs=[7.2, 0.24, ] kVAs=[15, 15, ] taps=[1, 1, ] wdg=1 %R=0.52 RdcOhms=15.27552 wdg=2 %R=0.52 RdcOhms=0.0169728 %loadloss=1.04 %noloadloss=0.34 XHL=1.5 normhkVA=15 emerghkVA=21
New "Transformer.b18839-1b" phases=1 buses=[b18839.2, x_b18839-b.2, ] conns=[wye, wye, ] kVs=[7.2, 0.24, ] kVAs=[15, 15, ] taps=[1, 1, ] wdg=1 %R=0.52 RdcOhms=15.27552 wdg=2 %R=0.52 RdcOhms=0.0169728 %loadloss=1.04 %noloadloss=0.34 XHL=1.5 normhkVA=15 emerghkVA=21
New "Transformer.b18840-1a" phases=1 buses=[b18840.1, x_b18840-a.1, ] conns=[wye, wye, ] kVs=[7.2, 0.24, ] kVAs=[15, 15, ] taps=[1, 1, ] wdg=1 %R=0.52 RdcOhms=15.27552 wdg=2 %R=0.52 RdcOhms=0.0169728 %loadloss=1.04 %noloadloss=0.34 XHL=1.5 normhkVA=15 emerghkVA=21
New "Transformer.b18841-1b" phases=1 buses=[b18841.2, x_b18841-b.2, ] conns=[wye, wye, ] kVs=[7.2, 0.24, ] kVAs=[15, 15, ] taps=[1, 1, ] wdg=1 %R=0.52 RdcOhms=15.27552 wdg=2 %R=0.52 RdcOhms=0.0169728 %loadloss=1.04 %noloadloss=0.34 XHL=1.5 normhkVA=15 emerghkVA=21
New "Transformer.b18843-1a" phases=1 buses=[b18843.1, x_b18843-a.1, ] conns=[wye, wye, ] kVs=[7.2, 0.24, ] kVAs=[15, 15, ] taps=[1, 1, ] wdg=1 %R=0.52 RdcOhms=15.27552 wdg=2 %R=0.52 RdcOhms=0.0169728 %loadloss=1.04 %noloadloss=0.34 XHL=1.5 normhkVA=15 emerghkVA=21
New "Transformer.b18844-1a" phases=1 buses=[b18844.1, x_b18844-a.1, ] conns=[wye, wye, ] kVs=[7.2, 0.24, ] kVAs=[15, 15, ] taps=[1, 1, ] wdg=1 %R=0.52 RdcOhms=15.27552 wdg=2 %R=0.52 RdcOhms=0.0169728 %loadloss=1.04 %noloadloss=0.34 XHL=1.5 normhkVA=15 emerghkVA=21
New "Transformer.b18846-1a" phases=1 buses=[b18846.1, x_b18846-a.1, ] conns=[wye, wye, ] kVs=[7.2, 0.24, ] kVAs=[15, 15, ] taps=[1, 1, ] wdg=1 %R=0.52 RdcOhms=15.27552 wdg=2 %R=0.52 RdcOhms=0.0169728 %loadloss=1.04 %noloadloss=0.34 XHL=1.5 normhkVA=15 emerghkVA=21
New "Transformer.b18847-1b" phases=1 buses=[b18847.2, x_b18847-b.2, ] conns=[wye, wye, ] kVs=[7.2, 0.24, ] kVAs=[25, 25, ] taps=[1, 1, ] wdg=1 %R=0.38195 RdcOhms=6.732098 wdg=2 %R=0.38195 RdcOhms=0.007480109 %loadloss=0.7639 %noloadloss=0.0851 XHL=2.1 normhkVA=25 emerghkVA=35
New "Transformer.b18849-1b" phases=1 buses=[b18849.2, x_b18849-b.2, ] conns=[wye, wye, ] kVs=[7.2, 0.24, ] kVAs=[15, 15, ] taps=[1, 1, ] wdg=1 %R=0.52 RdcOhms=15.27552 wdg=2 %R=0.52 RdcOhms=0.0169728 %loadloss=1.04 %noloadloss=0.34 XHL=1.5 normhkVA=15 emerghkVA=21
New "Transformer.b18850-1b" phases=1 buses=[b18850.2, x_b18850-b.2, ] conns=[wye, wye, ] kVs=[7.2, 0.24, ] kVAs=[15, 15, ] taps=[1, 1, ] wdg=1 %R=0.52 RdcOhms=15.27552 wdg=2 %R=0.52 RdcOhms=0.0169728 %loadloss=1.04 %noloadloss=0.34 XHL=1.5 normhkVA=15 emerghkVA=21
New "Transformer.b18853-1b" phases=1 buses=[b18853.2, x_b18853-b.2, ] conns=[wye, wye, ] kVs=[7.2, 0.24, ] kVAs=[15, 15, ] taps=[1, 1, ] wdg=1 %R=0.52 RdcOhms=15.27552 wdg=2 %R=0.52 RdcOhms=0.0169728 %loadloss=1.04 %noloadloss=0.34 XHL=1.5 normhkVA=15 emerghkVA=21
...